47
CSD_code = ABAFUF | q = 0 | S = 0 | Stoichiometry = C18H24Cl2N2Pd | MND = 4
Pd       10.20373643101185    0.67780287991417    8.23456560368338
Cl       10.95955152985320    0.99017653496704   10.34586049856412
Cl        8.34257007396160    1.90223250037317    8.63987470408053
C        12.31407316655442   -1.35354611104348    8.36418794533432
N        12.04108593770707   -0.14633271102417    7.59230709451266
C        11.89050087653820   -0.44220275034380    6.16134781201129
C        10.47945784596340   -0.92635932012885    5.83423354604508
N         9.45883541763611   -0.02352573852435    6.38318421779660
C         9.22326998268522    1.11645642042023    5.50416443434969
C        13.12010641969152    0.84538584614050    7.80290047598364
C        12.81245109356626    2.14086547801856    7.09075702145706
C        11.86438842936108    3.02721460223346    7.60838156280444
C        11.51391947430347    4.16456224558690    6.89557131594411
C        12.11060688357879    4.43991772577426    5.67579672807357
C        13.08497105469416    3.59066916604760    5.18017532982299
C        13.42907755646595    2.44672019531365    5.88128433167585
C         8.19329681715067   -0.75627594246847    6.61634083956541
C         8.39405098222239   -1.87749070979186    7.60774148791836
C         8.51017841325485   -1.60352827187173    8.97317186628770
C         8.80397550342131   -2.62507838823079    9.86466631495123
C         8.96759585270835   -3.92485569853225    9.41333445947780
C         8.80377242937710   -4.21120613187548    8.06896508831940
C         8.52367970672897   -3.19291514665137    7.17252990414099
H        12.35701740614273   -1.09335439007922    9.42272556644466
H        11.51324668754288   -2.08144935454171    8.22310527914287
H        13.26807349795711   -1.80988331721074    8.06509999361935
H        12.08925865164469    0.47186405131817    5.59652789269807
H        12.62209458676050   -1.20117788195537    5.84484606260545
H        10.33684701953894   -1.91725906900643    6.27192078196089
H        10.36651170638354   -1.01924501900362    4.74340000902005
H         8.50645912835038    1.78707827680894    5.98004623611963
H        10.15195076846890    1.66681669412952    5.34314776961326
H         8.82606168711450    0.79383934841748    4.53155627223822
H        13.18638474879794    1.02318631602325    8.88090737443609
H        14.07413131361573    0.43087163331512    7.44310982168949
H        11.44751810809131    2.87452046379501    8.60354843552640
H        10.77634756734937    4.83944521545061    7.30270086613926
H        11.83190775895880    5.32365330006274    5.12154686437122
H        13.57608914654746    3.81365629178674    4.24426356243719
H        14.19198540969114    1.78836795796142    5.48609215304211
H         7.47353457017308   -0.03461640268241    7.01526395761677
H         7.81846239525142   -1.15434500718056    5.66114084281778
H         8.29940519488049   -0.60635197630100    9.35841974855234
H         8.89782446060641   -2.40069365087590   10.91635938172451
H         9.20245259567387   -4.71627883798695   10.10927579666417
H         8.89912766442600   -5.22677746384127    7.71346633981426
H         8.39695604759285   -3.42645385276548    6.12318640892364

