33
CSD_code = ABAPAV | q = 0 | S = 0 | Stoichiometry = C9H21AuIP | MND = 2
Au       -2.11392637816906  -10.99267958839407   -4.04078470035969
P        -4.20828377626232  -11.30170766936892   -3.23994483764387
I         0.23294835962526  -10.65015384373707   -5.00745833492196
C        -4.49083025922483  -10.85352906689107   -1.44896672350509
H        -4.33442138093666  -11.79498372152256   -0.90426408055496
C        -3.39962546196713   -9.87616763764187   -1.01201360972406
H        -3.48135472538726   -9.67045971658681    0.05385939920256
H        -3.47834819265333   -8.93147175993440   -1.54731551862770
H        -2.41095352655074  -10.29265118982320   -1.20380186778663
C        -5.87758160800269  -10.31714698479487   -1.10389518569126
H        -5.95672676059163  -10.20816192100636   -0.02305364339069
H        -6.66628351934074  -10.99007958522328   -1.43113387829064
H        -6.04621056346976   -9.33927606475610   -1.54853425264732
C        -4.72871188424114  -13.08152666248089   -3.36430937155769
H        -4.67242642527051  -13.29499168534324   -4.44091828599843
C        -6.13430893821011  -13.39641417125379   -2.86422327205805
H        -6.37508501095506  -14.43416680000105   -3.08997098956720
H        -6.88038832415610  -12.76646160774761   -3.34482355864609
H        -6.20233392960654  -13.26598907806831   -1.78633468772808
C        -3.68059909070418  -13.94721273918241   -2.66707987842627
H        -3.86160000078438  -14.99913200789506   -2.87894125726254
H        -3.70722926224076  -13.81364056823698   -1.58682416705274
H        -2.67906310549239  -13.69665218286161   -3.01879790181054
C        -5.45908010164646  -10.36084223574276   -4.23790553203970
H        -6.44365636105275  -10.42450078799816   -3.76179425640469
C        -5.00861398402783   -8.90230477633331   -4.29717389176859
H        -5.70703415191547   -8.31462705699920   -4.89049418789497
H        -4.02457100108796   -8.83145440240217   -4.76164776459868
H        -4.94869285726524   -8.45726008703214   -3.30592216997649
C        -5.52393291414292  -10.94405948176409   -5.64752198518687
H        -6.08700934112303  -10.27770723436661   -6.29861433242049
H        -6.01002727550167  -11.91711481289742   -5.66169397128879
H        -4.52003824763445  -11.04877287163709   -6.06220130435858

