55
CSD_code = ABUFUY | q = 0 | S = 0 | Stoichiometry = C28H20BrNO3PRe | MND = 6
Re       -0.97699885658555    2.52376050200905   16.98786172564135
Br       -0.66270982656882    2.85990236841140   14.45544050310365
P         0.62651294764658    4.30913532566989   17.24160633066216
O        -3.38445860561198    0.71456417400244   16.25873235090618
O        -1.41868465163682    2.13021058659170   20.01861212351321
O         1.02742236267942    0.16809305773001   16.93758352312223
N        -2.32231218020131    4.35238604335906   16.84200901375279
C         0.35226038900209    5.63156756791885   16.02059402088742
C         1.43621686517740    6.24723592438054   15.40982259406031
C         1.25087450073270    7.25942597689468   14.48384205908557
C        -0.02954610997608    7.68162832485559   14.16745668267071
C        -1.11627088619239    7.08492463560744   14.77392237251721
C        -0.95316050909723    6.04316586580940   15.69216958381923
C        -2.16860774127155    5.46358862814080   16.22549225570521
C        -3.65539215216748    4.01735249991110   17.18928916365638
C        -4.00552304223433    3.86508189706840   18.52725461096589
C        -5.30045388051248    3.51425653140124   18.85738437100284
C        -6.24489615507075    3.30839881939589   17.86456154519414
C        -5.89685400265669    3.46970256005944   16.53453377630794
C        -4.60895710965235    3.83806288433807   16.19172196043676
C         0.51510297403444    5.20086957213954   18.82441828416224
C         0.06583145129868    6.50894262584219   18.95016982394322
C        -0.05824098903561    7.07510762313137   20.20808602807995
C         0.26152040783647    6.34308931560159   21.33848863696323
C         0.70982168007380    5.03595410681228   21.21670091014106
C         0.83024063436499    4.46474211941746   19.96598156743332
C         2.40132920550903    3.95195593385012   17.08795390838644
C         3.36229337909473    4.57114300594355   17.88226723211303
C         4.69738302387028    4.24913943278228   17.72002726982925
C         5.08126873758571    3.31696800385205   16.76914335498032
C         4.12760942681777    2.70465426805921   15.97238042974486
C         2.79065484510583    3.01760632530369   16.13121809622479
C        -2.48616219994591    1.35475003362488   16.55715567325734
C        -1.25872360882753    2.31012051222913   18.89515496494557
C         0.26655535270961    1.02466194311959   16.97558691376264
H         2.43789943769780    5.92303256623962   15.65226505389238
H         2.10744575731635    7.71546505185070   14.01109237391308
H        -0.18095087176680    8.47125773122641   13.44750456871443
H        -2.11593091062920    7.40866693201527   14.52067148077046
H        -3.06318071134227    6.06497476002310   16.03433963961187
H        -3.26518686769596    4.03568553162820   19.29553624134962
H        -5.57041567409586    3.39846362664415   19.89605534961997
H        -7.25115591771304    3.02081067063325   18.12821507156441
H        -6.62826417790389    3.30938105329786   15.75700427953168
H        -4.32315966880084    3.94476151644093   15.15429588726444
H        -0.18277790400116    7.08949865712391   18.07172845636866
H        -0.40786380357759    8.09291388303122   20.30303532182029
H         0.15951846915395    6.78949954383965   22.31633281823677
H         0.95740218936502    4.46251632885597   22.09734712794494
H         1.17257364089898    3.44254634772394   19.85520572655798
H         3.06677289092922    5.30073337440118   18.62367016050072
H         5.44111709371961    4.72894157552623   18.33945445718162
H         6.12544314879181    3.06855393576454   16.65053867919282
H         4.42327962400206    1.97969993118308   15.22935188475148
H         2.04768857936118    2.54214798727742   15.50533176022645

