58
CSD_code = ACIQEK | q = 0 | S = 0 | Stoichiometry = C24H22CuIN6O2S2 | MND = 3
I        -0.96241150308941    4.98759245178054    8.42136795666369
Cu        0.84382173099188    5.16752819443319   10.15391703919172
S         1.18838974666098    6.89420564827382   11.69772534310732
S         2.59395724810349    3.65469821181704   10.53416330552736
O        -4.65774439979571    9.89699567835238   11.05116708883106
O         2.66746495984169    0.91552030312973    4.52761257708332
N        -2.34608041152224    8.33021915712182   11.00709108205689
N        -1.24404093060958    7.56432663142085   10.97569784647566
H        -1.17473369976396    6.76880956565583   10.32981519615208
N        -0.35484663986672    8.94397618537373   12.53244041144929
H        -1.27673178296237    9.35626295902807   12.37972510883988
N         2.25954134028691    2.29621640224920    6.91911667919933
N         2.05132102383277    2.97083709221214    8.06036429329785
H         1.24429769605463    3.59804857828258    8.16101111651441
N         3.86945598932195    1.92206346660060    8.90463754499602
H         3.81871442997709    1.53893318038223    7.95924267967928
C        -5.86632513696815   10.41911288996682   10.81815500084713
H        -6.14807080056754   11.28158683961300   11.38996109562660
C        -6.52815612701356    9.71499434059925    9.85379333923776
H        -7.50886669014719    9.91086777310560    9.47224784628466
C        -5.65618783105400    8.68000662597537    9.46609639418072
H        -5.83030282065883    7.92379292557575    8.72864915248278
C        -4.51713239427573    8.83087569495857   10.22834769065089
C        -3.32373346478034    8.04835058002558   10.23061488876040
H        -3.30045190039473    7.20915516874174    9.53426510548004
C        -0.17807655790012    7.85913578192166   11.76065518370539
C         0.44229829173693    9.60958718950278   13.46002746781151
C         1.72349718576271    9.21343058680859   13.83010654614357
H         2.16986070045782    8.33559661412396   13.39823491088205
C         2.42954753445238    9.95470498664205   14.76095436242935
H         3.42330717724541    9.63759230814522   15.03924551122621
C         1.87921923269751   11.08817450110831   15.33224751254617
H         2.43911638105058   11.66051767929551   16.05596890103783
C         0.60166809813438   11.48343172004414   14.96816021585686
H         0.16049504281105   12.36546086115259   15.40791640494954
C        -0.11234976029737   10.75218485825073   14.04121326432770
H        -1.10877399904378   11.06109539571758   13.75715679734711
C         2.56521836211700    0.42448458525893    3.28844355374180
H         3.31909957503229   -0.26904254119398    2.97081569934622
C         1.46921596897426    0.92815423970073    2.64900306937428
H         1.14666503847844    0.70641990274745    1.65284636596367
C         0.85254179707405    1.79736726095479    3.56874257109270
H        -0.03651829262992    2.37551606760858    3.42247164495447
C         1.62402573073334    1.75895485291771    4.71078779063096
C         1.44379907118330    2.45188128673911    5.94514872283530
H         0.57522388555908    3.10902055662070    6.00376577444748
C         2.87694240906508    2.80019485242199    9.12331093373471
C         4.92818592449876    1.45031922345815    9.67590354578920
C         5.78430786726564    0.53812344416032    9.05466113742491
H         5.59462322610946    0.24607059942319    8.03100477808670
C         6.86299484217364    0.01315224870917    9.73634308487180
H         7.51612346648237   -0.69086471822854    9.24254507186818
C         7.10585878274635    0.38708764647910   11.04862855276001
H         7.94859292281135   -0.02369554829356   11.58345358588218
C         6.25865398997536    1.28934334833863   11.66698537799915
H         6.43899673155275    1.58582056981909   12.68932187884400
C         5.17424127398027    1.82310092696922   10.99353017879772
H         4.52795046783604    2.52240216789934   11.49317382063625

