51
CSD_code = ACONEO | q = 0 | S = 0 | Stoichiometry = C20H22Br2HgN2O4 | MND = 4
Hg        6.10211669324552   -0.42330437131613    9.63224214502553
Br        8.29654094396341   -0.88865350865411    8.65269100864649
O         4.15103796318917    5.94711625811103    3.75252288888736
O         2.25141693081264    4.33840825125140    3.33097657292813
H         3.31879124416070    5.57154829926092    3.33248580903587
N         5.34750496787828    1.24985980419529    7.94280916728965
C         5.80560945358328    5.53214647986503    5.38252458205086
H         6.68089879805194    5.22431979866533    4.81155984343987
H         5.86867867773155    5.10388041183685    6.37806199096258
H         5.81563753613041    6.61796452109892    5.43926423655549
C         4.56457835868085    5.09773103959889    4.66847671849715
C         3.90102025187613    3.92980753466614    4.94890291770271
C         2.70983882087516    3.58528322400896    4.19132449757186
C         2.06252536367639    2.25464773072014    4.46083999913864
H         1.50251364390856    2.29846752116301    5.39304055251699
H         2.80771977961628    1.46767949760303    4.54784203260675
H         1.37034923821565    2.02684655117746    3.65407541024064
C         4.40231127023181    3.01026215127593    5.98608227781651
C         5.62684789936587    2.35841138576792    5.84878796515626
H         6.23367679726106    2.51138028302209    4.97056204911566
C         6.05373613275566    1.49767423124232    6.84070776934154
H         7.00034873110420    0.98147169824332    6.74958069943681
C         4.17956544653782    1.87504674050280    8.08508451568220
H         3.62653838507261    1.65855274933791    8.98966330917968
C         3.67443487194384    2.75318966930644    7.14707199264645
H         2.72932052966829    3.24207252852454    7.32365461748263
Br        3.90857535043310   -0.89176717119272   10.61202997541608
O         8.05118105090900    5.94581543112252   15.51486647774879
O         9.95185992525495    4.33683656528011   15.93342217025396
H         8.88355376797208    5.57034482367703   15.93425317763220
N         6.85455857004319    1.25110268416499   11.32126278163038
C         6.39601178128717    5.53213419684624   13.88522359678575
H         5.52112696831883    5.22547347990117   14.45743549987762
H         6.33145239472381    5.10330765955610   12.89003607902754
H         6.38680567059892    6.61792737068419   13.82779874951235
C         7.63752305925170    5.09721697398679   14.59811787604138
C         8.30116413277406    3.92978462323229   14.31616611922710
C         9.49288734866186    3.58453429782792   15.07275979360539
C        10.14023694266680    2.25433825661358   14.80107801988094
H        10.69882695340758    2.29897543591161   13.86805574494939
H         9.39506448006455    1.46728528230871   14.71456670189758
H        10.83365090337766    2.02599430508529   15.60662606731914
C         7.79962277871008    3.01098318230405   13.27846507764057
C         6.57541775296084    2.35848931276334   13.41589972309075
H         5.96896063148958    2.51072650027898   14.29450903667257
C         6.14858896392392    1.49800235999830   12.42377979008049
H         5.20248829237267    0.98086485975241   12.51511185926993
C         8.02191727038206    1.87722462027407   11.17867083326854
H         8.57473115739355    1.66154137111115   10.27376897122455
C         8.52702788339134    2.75511913174359   12.11693965695209
H         9.47170724017996    3.24473396632591   11.94012065216062

