64
CSD_code = ACOSAP | q = 0 | S = 0 | Stoichiometry = C27H33ClN2Pd | MND = 4
Pd       -4.01212905576115    6.84033343418483    9.94813223916572
Cl       -5.97638972929099    6.63287876510050   10.97825202878637
N        -2.86828042599728    7.21565531016192   11.87892274797796
H        -3.36412116632941    6.44760753075786   12.33554442625226
N        -2.27038072080996    6.96771321397571    9.17303201783203
C        -2.99538120068254    8.35238977998996   12.74358903969651
C        -2.88500102339960    9.65779409508470   12.24242656398564
C        -3.09444795775936   10.72804168679283   13.10071073129905
H        -3.02851463789048   11.73516849249250   12.72234152601323
C        -3.41014496521898   10.52757373635876   14.42873806461355
H        -3.58007932421419   11.37190667493386   15.07993148463496
C        -3.52406934469170    9.24186053305007   14.91688229282794
H        -3.78819278644843    9.09660108513739   15.95159905737089
C        -3.30903472715922    8.14247766773714   14.09822468862865
C        -1.52307780589812    6.72304325335878   11.46522939568368
C        -0.43849193796095    7.22009623090939   12.42196665097007
H        -0.73288196373139    7.01944286491604   13.44960372618159
H        -0.29028137340970    8.29233345824421   12.31550672833237
H         0.50227236242465    6.70900131155603   12.23541281367816
C        -1.59011325931253    5.18315074906401   11.48211825726375
H        -1.68693020427227    4.81057843486180   12.50080226978310
H        -0.68886700721117    4.75592324451562   11.04607404490153
H        -2.45646701768261    4.84389561824973   10.89027775884771
C        -1.23259357598546    7.08338166351414   10.00369466851137
C         0.02481832882944    7.40521886804496    9.51729485065523
H         0.87409939519103    7.49617913684598   10.17235582000446
C         0.15978176122358    7.63986784155715    8.15569763076128
H         1.11956541968065    7.92740265667318    7.75362965352509
C        -0.92665311068809    7.49966836042516    7.31177649920163
H        -0.79957673401810    7.69771004174363    6.26500686796214
C        -2.16749858294776    7.13152438150704    7.83783962444997
C        -3.43854945384365    6.89139012417106    7.15143830965398
C        -4.52792124344525    6.67423445225544    8.03840152900874
C        -5.79689743610591    6.43691396358376    7.53666242079243
H        -6.62745834243267    6.27986748115933    8.21243805163002
C        -6.00308083955866    6.39312424083745    6.16725195429086
H        -6.99144915499123    6.20673659999052    5.77250566160595
C        -4.93935544158678    6.57552764509299    5.30317559243803
H        -5.11089605453444    6.52248566359174    4.23705020211958
C        -3.65186467140134    6.82050516885165    5.76245194173593
C        -3.48827097284667    6.75050299405296   14.67154418601914
H        -2.87472886476326    6.03547016014854   14.11090927243790
C        -4.96003848223833    6.34037705474976   14.54286618343678
H        -5.58197035461315    7.00483989027770   15.13805561130845
H        -5.10246207945699    5.32211251954270   14.89933613436601
H        -5.30704301929238    6.39937864915928   13.51185303832466
C        -3.02917477743519    6.63712974011462   16.12786036539605
H        -2.04069946552298    7.07421994580534   16.25894205043846
H        -2.98320698875614    5.58796750599039   16.41392745726458
H        -3.72103437723786    7.13120206973714   16.80408433586906
C        -2.63779107500382    9.92558313048055   10.77456136259634
H        -2.09364824661169    9.08070735840516   10.35066199569522
C        -3.98722866869850   10.04624234131516   10.05073181928509
H        -4.59034105053318    9.12824428075086   10.18429057122347
H        -3.82885280454712   10.21158851447385    8.98456984588697
H        -4.55569757302485   10.88190924979644   10.45361956825337
C        -1.78046583629869   11.16608099635642   10.51564708241714
H        -2.33466944664336   12.08225406874445   10.70082865540508
H        -1.46218470108512   11.17631315998060    9.47483098034382
H        -0.89300768466821   11.16213957599364   11.14566947407303
C        -2.56962470085367    6.97387022588163    4.73360394403270
H        -2.96481520439783    6.73939615030613    3.74752598296145
H        -1.73925298577380    6.29847659087555    4.93305560371790
H        -2.19865563037488    7.99828836578292    4.70513464616856

