45
CSD_code = ACUJEP | q = 0 | S = 0 | Stoichiometry = C14H20Br2CdN4O4 | MND = 4
Cd        0.44143113160940    3.52245026988923    3.64425032337867
Br        1.24897596274667    4.25296052281740    5.92118199449399
Br        2.26968793645902    2.45922011833968    2.26905305365851
O        -1.17289979694785    2.18495884262834    2.16146790479971
O        -1.39172855272158    5.28439482162755    3.96113653469983
N        -0.02070332446129    1.30362430504107    4.52894322257321
C        -0.23324478186035    0.46398268091268    3.46456555123661
O        -1.38972161521321    7.34806817932292    4.82754031037989
N         1.11143006517533    5.71918231768043    2.83409276466248
C        -0.88943348901008    1.00897533853050    2.27946528821805
C         0.66611308008253    0.62877272055965    5.40104809215589
C        -0.83916080743401    6.35252756474245    4.13849313673542
C         0.49401345972422    6.65418212356460    3.62601465999852
O        -1.13869676474107    0.10545652151766    1.33559279112601
N         0.91051049281653   -0.62941351349705    4.95802471713616
N         2.50579879298132    7.36530032077466    3.20166265106673
C         1.36515029977346    7.69645444206731    3.87020473741530
C         0.35428167231569   -0.75831479189777    3.72013590470108
C         2.30899168907559    6.16544882889651    2.60067986841037
C         0.47908630967574   -1.99142695955901    2.91195517349684
H         1.48400247672067   -2.05458541962484    2.49329668781801
H        -0.23320211772889   -1.96870533814155    2.09400604785779
H         0.30464078812044   -2.87366548160685    3.52621044597294
C        -2.64931384067050    7.06205901590803    5.44458386988754
C         1.24396498479214    8.91882561169033    4.69488114831738
C        -1.68507587967949    0.61122965215777    0.11266507516853
C        -1.75068068035066   -0.52937329319459   -0.88442995689240
C        -3.01003326198797    8.22627030447501    6.34698142672968
H        -2.24780730815351    8.35462573835940    7.11057357844097
H        -3.96427509772458    8.03155674502325    6.82736250732380
H        -3.08471345457982    9.14316883504720    5.76815645608327
H         1.00001331266081    1.00930796030916    6.34775262052341
H         1.45577984734050   -1.33451878936789    5.42889517260082
H         3.04978351561670    5.65802875341429    2.01228905355485
H        -2.55525892936153    6.13041385723055    6.01259769357684
H         1.76795489239448    9.75173546569768    4.22908171824016
H         3.36061925437975    7.89959678440395    3.20602852808669
H        -1.04117999194280    1.42053199064484   -0.24770837437202
H        -2.67882194322632    1.02627703982490    0.31458393969234
H         1.68067721374570    8.74011925822322    5.67808382893121
H         0.19734551099897    9.17184864877218    4.82911065677343
H        -3.40100239209011    6.91309888674579    4.66112088868192
H        -0.75461574148233   -0.92523013093347   -1.06300556301923
H        -2.38239547083169   -1.32773133465563   -0.50345921663303
H        -2.16218744689583   -0.16878941424383   -1.82246691366462

