59
CSD_code = ADIJAZ | q = 0 | S = 0 | Stoichiometry = C24H30Cl2NPPd | MND = 4
Pd        3.88366510344272    4.73562498437067    1.66830807020702
Cl        2.40453719407992    3.17468993000639    0.88124060103574
Cl        5.15678561448809    6.56965992778736    2.25006361194672
P         3.63957113510599    5.98017540445329   -0.15629579474557
N         4.20125534153810    3.57732755669893    3.51301117881215
C         2.59455033114536    5.37451918890359   -1.51849792624495
C         3.02429240393847    4.20527179130898   -2.14051584276290
H         3.92752113100756    3.72199128106725   -1.78484874214621
C         2.29363062064364    3.66269476664112   -3.17800883407045
H         2.62364663814752    2.75090093331967   -3.65349153357333
C         1.12884917252337    4.28558955063205   -3.60055577587597
H         0.55200009443160    3.85916292978957   -4.40803774796422
C         0.69967676977755    5.44823429915272   -2.98424764043606
H        -0.21002029564096    5.93036327439996   -3.31200477482876
C         1.42788136373094    5.99571255556427   -1.94135638154681
H         1.08748688306530    6.90083963150301   -1.45697983034356
C         2.85002997828588    7.52689461943762    0.36024091812830
C         1.71763836445505    7.34514949062306    1.15555133826859
H         1.37180936774481    6.33021222946466    1.35625687349087
C         1.05077252124644    8.43920409446731    1.67108508620668
H         0.17421922524189    8.30063858340874    2.28715555494635
C         1.51849129059133    9.71757954893560    1.40353515796985
H         1.00346391159830   10.57495370519737    1.81125582389862
C         2.65233653618794    9.89706473939361    0.62950017472310
H         3.02248120821494   10.89368820735311    0.43806117711636
C         3.32535197671075    8.80482020540287    0.10708128750933
H         4.22612439830574    8.94439842953983   -0.47257907726866
C         5.15929529798054    6.33940855697558   -1.07794575803859
C         5.12748654446579    7.14940387475249   -2.20925837909639
H         4.19212935372169    7.59019231119074   -2.52811940198385
C         6.28983767102806    7.37573934464159   -2.92258666056875
H         6.27066754268279    8.01378408521364   -3.79417814302180
C         7.47731295905344    6.78089078467521   -2.52463759183294
H         8.38285168544761    6.96260411726312   -3.08459740525439
C         7.50346253311474    5.94829608657373   -1.41797573540828
H         8.42716620798371    5.47565313485842   -1.11837005257496
C         6.34504889506032    5.72428546499729   -0.69564929057872
H         6.35035280923060    5.08260038202069    0.18301286550161
C         4.64694273717886    2.24083037220096    3.08322297715535
H         4.91555364029541    1.62218872409633    3.94936133587176
H         3.80444957452095    1.76425636244941    2.57344348395024
C         5.81238148575870    2.30717170077077    2.09769339936014
H         5.54510145645119    2.97708745331145    1.25870027868248
H         5.99681873203003    1.31531995012532    1.69120525021912
H         6.72864601370381    2.66154567397556    2.56635226114771
C         5.19647436253447    4.23526715886164    4.38013862994834
H         4.83729677528467    5.24388133516850    4.59494595171250
H         6.11750676423536    4.35186286510430    3.80312544167475
C         5.52586376287273    3.53888014961118    5.70215235016063
H         4.64992012985834    3.43679819921763    6.33762484612908
H         6.25260495194344    4.14888962914823    6.23278044818186
H         5.96513894590952    2.55613443662350    5.55020391803461
C         2.87965173826124    3.49159796989484    4.15624709618681
H         2.94322284168518    2.95177867304161    5.11078652666776
H         2.23178277360526    2.91891132103174    3.48488351333176
C         2.24991544141989    4.86777729380245    4.36587997043641
H         2.71041674819861    5.40916231882009    5.18954761267874
H         1.19024430170650    4.75286176426891    4.58226041821415
H         2.35610704276460    5.46787664649858    3.44392289065715

