75
CSD_code = ADIRIP | q = 0 | S = 0 | Stoichiometry = C29H38ClNO4PRh | MND = 4
Rh       15.45813299265801   -5.17389547835418    7.24304308022594
P        16.90658820257458   -6.06792586958058    5.73862593310119
Cl       13.40289414504013   -4.68460073450294    8.18263719793726
O        16.11386952873898   -6.03151975373615    4.31055706080727
O        15.98871071089768   -6.98481281208038    9.53672043284081
C        15.79198105295855   -6.31382753206779    8.62705167156259
C        14.37017460365729   -4.35829240758613    4.55391192644146
H        14.73668505779793   -3.79470460469933    3.68551171649645
H        13.27840501504131   -4.26272384916000    4.59624313856651
C        15.45484994251274   -1.75904345765553    7.08196661151673
O        18.30775699216995   -5.49049843557493    5.20632655368238
C        14.91726118061817   -2.55877071580719    5.92334418440891
C        14.71677981964079   -5.83320851754886    4.35759584690194
H        14.26490516264562   -6.42079336688669    5.17072981376238
H        14.32026478450664   -6.18437378636320    3.40093161754844
O        17.34530156789261   -7.62161477763937    5.80891241379824
C        14.26154864204819   -1.57487743275982    4.99107762247072
H        13.21160109716749   -1.83014272045619    4.82928093938120
H        14.74828830416498   -1.56009915256145    4.01310087489324
C        14.43767070876539   -0.25361847577383    5.74418595307173
H        14.30438611377178    0.63017879951732    5.12163905943698
C        13.49627549965449   -0.31948556837881    6.95344656007241
H        13.41396093123078    0.65026336001088    7.44253183523384
H        12.49209837420311   -0.62112658128808    6.65678032151818
C        14.17058853791206   -1.36609749969052    7.85704960968364
H        13.54638360203517   -2.24185554741917    8.03097303138045
H        14.44144314287365   -0.95582484932410    8.82845586583531
C        15.83315534083287   -0.42905568590309    6.37522311378732
C        16.95442424794786   -0.59401968090953    5.34729697522410
H        16.92215806504051    0.22020086706633    4.62535826526883
H        16.89200463825392   -1.53767884220395    4.81290382068083
H        17.92210627115637   -0.56700796921932    5.84257423476055
C        16.23827195665307    0.69759933093152    7.32057821199794
H        16.38295477490952    1.61352529404330    6.75063178414108
H        17.17828142482465    0.45017297700007    7.80873475429511
H        15.49841724759661    0.88995085323138    8.08840737534971
C        16.51802767470773   -2.43397030139043    7.92038441627827
H        16.18089553770139   -3.47508452744422    8.14702855294755
H        16.66460329427233   -1.90199273414819    8.85644901877036
H        17.46403477063386   -2.47345024229357    7.38248750434968
C        18.97037687145144   -4.37444632340267    5.66570418689887
C        19.23264809793231   -3.36053627687609    4.74159173705230
C        19.97000556543932   -2.25956535377287    5.15185911470582
H        20.18347185581306   -1.47399252284979    4.44214853979653
C        20.42833138600326   -2.16352265082799    6.45379985411060
H        20.99978080068660   -1.30141205588639    6.76327848084740
C        20.15744655747460   -3.17474526297779    7.35596043623649
H        20.51607856705364   -3.10227455139148    8.37177329077308
C        19.42887670018796   -4.29809177512237    6.98019939101867
C        18.73382726315267   -3.48844247088245    3.33498634663112
H        18.74410914811664   -2.52454523750231    2.83209487278066
H        17.72356527755107   -3.89492168984860    3.32446201669211
H        19.36728521607556   -4.17786534993046    2.77682760475869
C        19.15397936069892   -5.38761424734911    7.96895756364010
H        18.97180539405226   -6.33678138428657    7.46769618638881
H        18.27246200804066   -5.14336552720689    8.56621362546259
H        19.99738079856765   -5.50229409142200    8.64656904864923
C        16.77387030734640   -8.62809446361237    5.03907908149675
C        17.34252518093276   -8.92917150662251    3.80233995949990
C        16.79480294028451   -9.96518314839830    3.05816727852842
H        17.22661956468742  -10.20927193220528    2.09864948155453
C        15.70828408468848  -10.67817551305761    3.52947287768288
H        15.29040596091594  -11.47997473114594    2.93941753554431
C        15.15711412607581  -10.36414149852454    4.75785465437459
H        14.30906857249768  -10.92128553631101    5.12740033368414
C        15.67809205265789   -9.33532465610549    5.53200954947950
C        18.50938793962090   -8.13826777672826    3.30358817939579
H        18.85854456736806   -8.52344699007175    2.34907642950524
H        19.32521642576763   -8.17286693032543    4.02422473362923
H        18.22259768074470   -7.09412922508881    3.18598714305678
C        15.08818229516622   -8.99806297649687    6.86453445292272
H        14.72955476395276   -7.96274276388353    6.88667169254895
H        15.84195200199014   -9.09525594441371    7.64423238922961
H        14.25513406431177   -9.65581934727689    7.09562636954425
N        14.95767564498702   -3.82386585958128    5.76895666145567

