25
CSD_code = AFAPIG | q = 0 | S = 0 | Stoichiometry = C6H10Cl2N2O4Pt | MND = 6
Pt       -1.86793606535487    8.36174653270816   13.80721442603011
Cl       -1.18709278625350    8.38686197872526   15.98395779122315
Cl       -2.60336711033993   10.51982349245463   13.88879461475806
O        -3.64042820766305    7.53665962826016   14.33421822297223
O        -4.67207412557085    5.58486428455681   14.32971277868949
O        -0.09109752745360    8.96042125225327   13.04297351586847
O         0.98582171638296    9.05041218420557   11.11768740434381
N        -1.26776442973273    6.31148915267401   13.58753184173373
N        -2.41618034868543    8.20110803315588   11.73675042343972
C        -1.23748548876025    6.06302532321268   12.13965793853977
C        -2.40788849329442    6.76249366380114   11.43801204164657
C        -2.27009486460353    5.54921883672437   14.33784954595865
C        -3.66716943328329    6.25118817167807   14.33276646061580
C        -1.41437047440324    8.99914078921005   11.02376877253945
C        -0.03434339083776    9.00456890500265   11.75924981396854
H        -0.34057726966865    6.15795918839413   13.98400147928864
H        -3.34860137459675    8.58226829957405   11.57618666968536
H        -0.29166536527282    6.44616249212504   11.74467030905010
H        -1.28737394852642    4.98682445187189   11.93130083654909
H        -3.35271028851515    6.33344323052604   11.78528837100080
H        -2.32920366787410    6.59292275833979   10.35671132193693
H        -2.38354903023891    4.53052184565787   13.95313284380327
H        -1.96825467683966    5.50270361415008   15.38798964021105
H        -1.26674797292402    8.64983575553630    9.99665711177307
H        -1.74054537569004   10.04283613520219   11.00241582437411

