69
CSD_code = AFIGIF | q = 0 | S = 0 | Stoichiometry = C23H37BClN6Nb | MND = 7
Nb       10.99654617935392    2.43962179847960    8.56553393716247
Cl       12.49502408895144    0.62298623599795    8.56359748264824
N         9.29471759946904    0.85526229433099    8.49179021047386
N         8.18821363889190    1.05640119944159    9.23861174061025
N         9.25593908124041    3.89138505211009    9.06471094592147
N         8.25352585711947    3.49255714713242    9.86944685166741
N        10.57186139035811    1.93752724450517   10.90929314996031
N         9.31331050686843    1.77663066294680   11.33900711219425
B         8.12946497269223    2.05777359159657   10.40421957759355
C        10.46103908582892    3.00062079367362    6.37204923264851
C         8.98454316605336    2.83124436019355    5.99346022366158
C        11.34385131305265    2.22806696001440    5.37504253441204
C        13.90826784431198    4.02717671566071    7.39477871692315
C        12.71366241192387    3.68146669644748    8.21418192075886
C        12.17647875097119    4.04842926561880    9.33905032925674
C        12.40431986503558    5.03722531584365   10.42961516541573
C         9.07675045984413   -0.21565318252804    7.72969185042662
C         7.79139769079774   -0.70517440885771    7.97892965293724
C         7.25807869024006    0.12716926939873    8.94237034132901
C        11.51528076791605    2.95936646940104    4.04009887969984
C         9.07915439112146    5.19148023845425    8.81545201838697
C         7.93446402721493    5.63383461235090    9.48030597684095
C         7.43745482999317    4.52679275108042   10.14246671051899
C        11.39570883416944    1.57652221068520   11.88499390321178
C        10.63735975046668    1.17594846734759   12.99176913829004
C         9.31728610026434    1.31440025017847   12.60580695455445
C        10.05555541811269   -0.81282993455278    6.78180706948753
C         5.90401651263904    0.05729711202610    9.55258016896743
C         9.94918769779162    6.02898562555333    7.94487959567535
C         6.23242913708256    4.45143702154795   11.00949515694755
C        12.87847714142572    1.58740214827787   11.75617903932202
C         8.09000986153950    1.01902689805009   13.39122588174257
H         7.11383510248746    1.93413468399494   10.98774248296200
H        10.69058605008505    4.06445822794689    6.20611116345991
H        10.90159723320953    1.25063690529703    5.17432914280160
H         8.34020367231466    3.40432979862310    6.66352560652585
H         8.67907249674298    1.78555030449867    6.03514409704258
H         8.79363112002124    3.18675892474850    4.97717646128257
H        12.34027214879864    2.06439005510075    5.79871412618447
H        14.47052815737161    4.84529794650665    7.85174356592483
H        14.55799080063729    3.15445374281948    7.31040807157745
H        13.61030734972793    4.31975267387976    6.38783886686165
H        13.27789968169940    5.65769262262037   10.21516373364085
H        12.55947601582794    4.52880866094902   11.38149152602064
H        11.53121651972019    5.68261513926389   10.54034683819087
H        12.15187497687958    2.38444619499925    3.36985023784904
H        11.97414900500787    3.93475813000165    4.19354407157794
H        10.55608829038859    3.10828064178889    3.54922209530125
H         7.52723584471288    6.62457876996645    9.47862191001977
H         7.32255955476960   -1.55136843970478    7.51861556746550
H        11.00335056687408    0.82988339913234   13.93735871799267
H         9.70110499664449   -0.70918808395175    5.75569558960305
H        10.15306981775380   -1.87778640946208    6.99115125061061
H        11.03176643417789   -0.34541541554832    6.87955491377563
H         5.33259958935649   -0.72838005623817    9.06510099095127
H         5.96562203794773   -0.16501566022476   10.61653862578389
H         5.37805411081392    1.00253052636323    9.43313054080548
H         9.94489392349620    7.05443529066310    8.30953586413756
H        10.96849630342919    5.64780407266209    7.93061880780836
H         9.56093418429879    6.03342349253409    6.92628590045074
H         5.75711721113539    5.42795119065631   11.04856505918664
H         6.50266314149006    4.15102965013920   12.01996339772376
H         5.51852383111587    3.72803210506102   10.62058834055819
H        13.33345890488498    1.99958713973986   12.65599018095569
H        13.18735836727976    2.16773656839777   10.88614413281542
H        13.24336964626432    0.56731704113329   11.62922981123078
H         8.37004365403248    0.69219599463162   14.38912504783950
H         7.45912638951947    1.90233352284730   13.47339504489167
H         7.50884580630327    0.23106976571831   12.91469674843620

