39
CSD_code = AFUQAT | q = 0 | S = 0 | Stoichiometry = C11H19Cl2NO3RuS2 | MND = 6
Ru        4.35623943844799    2.63665766530697    3.74612846011861
Cl        6.34708532788979    3.53247166989436    2.92407811115542
Cl        2.41684765248804    1.60997692400149    4.53858485766483
S         3.32161869163536    3.09564669572992    1.77909793792546
S         5.02968940285356    0.57858002508852    2.92770760524321
O         3.76249320033460    4.43255039857580    4.42911097905677
N         5.13827081103754    2.57887556389867    5.58984549537983
O         5.81737301127507   -0.24348919440192    3.83887822848850
O         3.34068783815916    2.11203919010279    0.70054567417868
C         5.83694345761707    1.59966083770222    6.14997150479256
H         6.01246415127559    0.72360291729246    5.53504071808866
C         6.32238961412483    1.67662901255876    7.44436006838716
H         6.88355143356639    0.85088033489011    7.84992882630791
C         6.07754566683885    2.81824005869770    8.19895643904106
H         6.44489475370808    2.90317909665496    9.20989930344321
C         5.35238311830174    3.84231066465422    7.62497651639379
H         5.13796247085881    4.74614202593021    8.17163832159597
C         4.88977998250545    3.70098185120665    6.31422997752785
C         4.11469224988718    4.69533615128539    5.59372792373776
C         3.73910980678248    6.00655538462382    6.21927317847597
H         4.63395132375311    6.55817196904854    6.50121290551877
H         3.13840661276250    5.83892531207075    7.11123312675669
H         3.16588676438401    6.59384587261875    5.50657489732130
C         3.89344060853483    4.66229446202703    1.06566723618237
H         4.94629101648817    4.54297515098373    0.82941473716199
H         3.77206210147300    5.42905488559144    1.82267773569459
H         3.31771817097522    4.87582723048768    0.17272312690213
C         1.58633729542085    3.55963766301687    2.03137480013595
H         1.15115197785227    3.83494015190945    1.07785757228677
H         1.56757330580318    4.37970005459305    2.74053649306528
H         1.08112067629754    2.69644401732929    2.45376171752609
C         5.98225907615597    0.65760941927428    1.38780711396612
H         6.84720788292493    1.28754455821510    1.56985010517200
H         5.34406374712401    1.09163794868653    0.62666299036405
H         6.28815181436544   -0.35101384808962    1.13631135579174
C         3.67842005482801   -0.48260361377376    2.35111839635614
H         4.10894158054912   -1.42849402935414    2.04407084973929
H         3.18578064607942    0.02680066311830    1.53078213115613
H         2.99471326460710   -0.62302514147794    3.18238258189712

