33
CSD_code = AGIQUF | q = 0 | S = 0 | Stoichiometry = C11H14BrN2O3PRu | MND = 6
Br        9.10497206896681    6.68261545589819    4.86449830993373
C        10.70175359923741    3.09278869507489    5.58937188183672
H        10.20258023886910    2.58145815214780    4.77455516058871
C        10.84411434343390    2.49055708631774    6.81908729614850
H        10.44597782634311    1.50413554114467    6.98916858170251
C        11.50507780899389    3.18501123241301    7.83031528871986
H        11.62113827174039    2.74808482603621    8.80979230182067
C        12.01492397060489    4.43206312698704    7.55793134800670
H        12.54159430610364    5.00390749570894    8.30492340738653
C        11.83599867346701    4.97458858597479    6.27721457627024
C        12.18168220626143    6.67796547807956    4.60900918975132
C        12.29445186725198    4.64667528009530    2.74155841977153
C        10.78561947239409    6.77312069679869    2.23108728557267
C         8.07767306609306    5.23653868453301    1.49414132647314
H         7.22824725815053    4.67806493677326    1.09946257678658
H         8.72829353729997    5.54167401464385    0.67405191975635
H         7.71821304772161    6.12654564486423    2.01289180599786
C         7.63895082413831    3.62927067211136    3.73633038455978
H         7.28005066467608    4.47266629891389    4.32646645557434
H         7.96125555235377    2.84001827175972    4.41306523664458
H         6.83480877626163    3.25535116867616    3.10209210147519
C         9.34161572692014    2.71637781603084    1.64781157707494
H         8.41254440717289    2.34143046405072    1.21909142208191
H         9.80303566805430    1.93457909968369    2.24991722951535
H        10.03017699466121    2.98569976342587    0.84746563204840
N        11.16654213160732    4.31277355150852    5.31494453355267
N        12.34260289347491    6.18061421761397    5.92047796907405
H        12.87993095138281    6.72601698996794    6.58679379786468
O        12.72988001345869    7.70434264673878    4.30974667720630
O        13.17488944835680    4.12929673695587    2.22032174388105
O        10.75039426136084    7.59256807105048    1.43876477468035
P         9.01959878546656    4.20407735128785    2.67557299134153
Ru       10.89471133771799    5.50072194673805    3.58437679690023

