66
CSD_code = AGOBUU | q = 0 | S = 0 | Stoichiometry = C26H31AuBr5N3 | MND = 4
Au        3.85558908295811    1.50643807266771    6.90697106969235
Br        4.40444954765674    0.94321256910905    4.57818453714619
Br        2.78106583151651   -0.61738725355303    7.29351545429354
Br        3.37444284538601    2.30318885974363    9.17579346474494
Br        8.61340435770537    2.44771548408584    6.76174852605991
Br        8.46042973455887    8.48762737819984   13.61524963136833
N         4.31301907382345    4.33513268581705    5.94465127759275
N         6.05646931899979    3.58189579744966    6.96017947550147
N         7.29576480249760    4.61130701357191    9.12988279272092
C         4.80243761134715    3.27563701860645    6.58590818378037
C         6.35979280871901    4.85095077937848    6.54327512210490
H         7.31276229856475    5.29838312340985    6.72787553816167
C         5.26294636719097    5.32004031408060    5.90450601697453
H         5.09339788025056    6.26379775317818    5.43172080721148
C         2.98099416289868    4.43421263014353    5.36858500289976
H         2.47529534007513    3.48552422065011    5.58726070714050
C         3.08225973550411    4.60304997145022    3.85656361918612
H         3.56995056700112    5.54014916644368    3.60088799310895
H         2.08550748862783    4.60319041893998    3.42563297065759
H         3.64448543296827    3.78063113501300    3.41965186926186
C         2.21431651030868    5.56961338178893    6.03915920999445
H         2.20346561885956    5.43832056991384    7.11942120611748
H         1.18821348655961    5.57260617026102    5.68331981814654
H         2.66168733067227    6.53267439346023    5.80707015230410
C         6.90653189836646    2.74925275064844    7.74067615437419
H         6.46374313814674    1.75594517612125    7.84400594980540
C         7.27243421501040    3.34806277886500    9.08187384054668
C         7.67447105590183    2.39997855624796   10.13314200434755
C         6.93866171196218    1.24785062284644   10.40276438295158
H         6.02509312890306    1.03926588448960    9.86743910550640
C         7.33795051968513    0.38846629346507   11.40874331639012
H         6.75234608273240   -0.49332947041098   11.61787650992694
C         8.47975750166371    0.65901305478748   12.14446751124435
H         8.79135189140194   -0.01745173388978   12.92557505502951
C         9.21710684599186    1.80214642444789   11.88121494319789
H        10.10674150774846    2.01844816793143   12.45284926736540
C         8.81433994885986    2.67371039821128   10.88801929434231
H         9.39149004756394    3.56122074058781   10.67777597388402
C         7.57431146473426    5.41475825310226   10.22134169062543
C         6.73286460462023    5.46108543765622   11.34353748798380
C         5.51238430950033    4.58437757642986   11.47278117046937
H         5.45528774443327    3.91262535816145   10.61346036933602
C         4.23883383989484    5.43288734123516   11.46357383897982
H         4.17761775208638    6.05961003823868   12.34915630209434
H         3.37191974075669    4.77825488382238   11.43544686376056
H         4.21701246902505    6.07326191423741   10.58405955807098
C         5.57840064068194    3.72015358180526   12.73280146680577
H         6.50815296437146    3.15574365405667   12.76437556480852
H         4.74781420084211    3.01952357316694   12.73150338155061
H         5.51434450113971    4.33012710031981   13.62980952003216
C         7.01168821052953    6.38764948151936   12.33730653946318
H         6.37843979977605    6.44554893575946   13.20802551245286
C         8.09560307104449    7.23370234096628   12.22162682762550
C         8.92055611789780    7.19630088866721   11.11354109551218
H         9.75718513067985    7.87279254238778   11.04358400183239
C         8.66405618803208    6.29228455911065   10.09847205370606
C         9.55645964960815    6.23736066440825    8.87853223218789
H         9.24882600755006    5.37967513599002    8.27064932714890
C        11.02500163329794    6.03695467482596    9.25534014147030
H        11.41216239012621    6.89503232892174    9.79790555552425
H        11.62185068857150    5.90480918026207    8.35598108052934
H        11.14748419604305    5.15339404104805    9.87848871588784
C         9.37987190632511    7.50836306808928    8.04452101547082
H         9.71169408452640    8.38081831134321    8.60153870823680
H         8.33315960486280    7.64972406033050    7.78181987413789
H         9.96515036044133    7.44178977598674    7.13008234919755

