51
CSD_code = AGOSOF | q = 0 | S = 0 | Stoichiometry = C25H18ClN5ORu | MND = 6
Ru        6.94964846743999    6.90311959713296   14.88393368401394
Cl        7.90928042100911    5.47252293619308   13.30721664023706
O         6.92128356956000    8.45614639090653   13.47094862067146
N         5.29282180598445    6.52163038292695   14.09779203245539
N         4.58352564003608    5.52712774593421   14.55277046596146
N         6.43498488289802    5.27071758264721   15.95488688540098
N         6.34464404365378    8.16963176430113   16.25979922628224
N         8.71867434085852    7.41790793522154   15.69880563804826
C         5.87335077274641    8.31161412793738   12.76122048257639
C         5.61394849898417    9.19771044287057   11.67014801377269
H         6.34746740517894    9.96419697497494   11.47076876817547
C         4.49460912803243    9.06152735092006   10.92028454677505
H         4.31039321161065    9.73492112899613   10.09438796399665
C         3.53330143503695    8.04427017507356   11.17580663210747
C         2.38653751759005    7.92874967820145   10.37601550423533
H         2.24723564896172    8.63157812927074    9.56657968389520
C         1.45901212779299    6.94428825946694   10.60870580894914
H         0.58019091375158    6.86315711228908    9.98597769661299
C         1.65968195760339    6.04243321111941   11.65380022472530
H         0.93261460960985    5.26350162647929   11.83229022100619
C         2.77184359769195    6.13198060324884   12.45645775558276
H         2.92436920229966    5.42894586785765   13.25846888622331
C         3.73444793396545    7.13179541652913   12.24316550443183
C         4.91646945273126    7.27821073085322   13.04406177969670
C         5.20856460397992    4.84661676662931   15.53285854027464
C         4.61224720945850    3.70587521915123   16.09694043501170
H         3.64097319706305    3.40844737721987   15.73846645862563
C         5.28753038884384    3.00172655749615   17.06371684762913
H         4.85072289296883    2.11830840986566   17.50433288010260
C         6.55174281358351    3.43492431639969   17.46316269498154
H         7.11382260861212    2.89984949357150   18.21051496598333
C         7.08050418888866    4.56758758149996   16.87838081640509
H         8.06124655048384    4.93680722217825   17.15681528101040
C         5.06709922506581    8.48340509809565   16.50449445018553
H         4.31836785890812    7.94825939194361   15.93283411068709
C         4.68639341976229    9.43055583737718   17.42947792464594
H         3.64039509034136    9.64230189642136   17.58088352872240
C         5.66789809937781   10.10214713384353   18.15329514666806
H         5.40307303074421   10.85086028203901   18.88270961053307
C         6.98975631322456    9.78510894824666   17.91275282376732
H         7.77483878968768   10.28541635073600   18.45568049113416
C         7.31029398232089    8.81736777243494   16.96201299817604
C         8.66393523506022    8.40298247603311   16.62514280847552
C         9.82368724337241    8.94541007384804   17.18008640344252
H         9.75821662752681    9.73264236910449   17.91361083182714
C        11.05612473954085    8.47203525797772   16.77482681169787
H        11.96442021576363    8.88180489006120   17.18925823052126
C        11.09851628567564    7.46193042021944   15.82037509904204
H        12.03827019520684    7.06518089933276   15.47195479763280
C         9.91238188685469    6.96721416759022   15.31381820994988
H         9.89784072265690    6.18244861934037   14.56620413702948

