29
CSD_code = AHACES | q = 0 | S = 0 | Stoichiometry = C10H13Cl2N3Pd | MND = 4
Pd        1.73582843156973   -1.00145304056059   -2.43279633846115
C         3.43191436469089   -1.98157225210251   -2.43279737266242
N         3.97305577776211   -2.64681227649395   -3.46401661411772
Cl        2.82160870804918    0.88226880322201   -3.12253567719650
C         5.16475862828764   -3.20383403222769   -3.08375632728350
H         5.77063017438371   -3.78118787716132   -3.75142283382996
N         0.01566193191303   -0.00804058702716   -2.43366816241945
C         3.36100931550576   -2.73216135860376   -4.76332771883824
H         2.39333071868879   -2.20293581631989   -4.71258271863223
H         3.18968739970266   -3.77439262400813   -5.03762249190507
H         3.99261033501519   -2.25583274598160   -5.51560926661198
C        -0.74110085783251    0.02568405239156   -3.52666042322232
H        -0.36129885535821   -0.51322416050862   -4.39405793043074
C        -1.94634439712055    0.70483545936942   -3.56955614477374
H        -2.53303108925399    0.70961347849252   -4.47442443384915
C        -2.37855082860561    1.37237382323730   -2.43375853278657
H        -3.31354279321318    1.91200441354613   -2.43417342471164
N         4.27945036054685   -2.11818704626089   -1.40242212999901
Cl        0.64527929126873   -2.88261226378799   -1.74246418728545
C         5.35749517023779   -2.87131879067855   -1.78410756646610
H         6.16110084818294   -3.10754729976173   -1.11732774117483
C         4.04843194045108   -1.54630291188452   -0.10256382277414
H         3.10567950187509   -0.97377197584978   -0.15183801901237
H         4.86508327697075   -0.87615861693219    0.17096500619052
H         3.95347182535624   -2.33186982136209    0.64951876940354
C        -0.39299589062866    0.63031907008059   -1.34079497649370
H         0.26312209369128    0.57115223039984   -0.47276430278280
C        -1.58444817828850    1.33342841052395   -1.29826585505425
H        -1.88229720384753    1.83973575625205   -0.39426876282202

