53
CSD_code = AHEJIH | q = 0 | S = 0 | Stoichiometry = C20H24Cl2N4O2Ru | MND = 6
Ru        2.53156522648712    7.66189044717931    3.28176873131891
Cl        0.45212580242224    8.57047945233630    2.68583869519364
Cl        3.72552826780531    9.43039562485890    2.30745364940281
O         0.12675620263725    5.84485108368328    6.01357101979415
O         6.13057861608127    5.86770400439771    2.66799716383624
N         2.19523357874933    8.60376671021134    5.00413392908449
N         1.45974922588249    6.24693467028383    4.24918931199206
N         2.84682388570778    6.77586132028876    1.52723454877163
N         4.34500495031334    6.83806487814045    3.62808367930639
C         2.56076489265198    9.84887698196571    5.30815514358594
H         3.23757162302380   10.32431834555286    4.60800212215769
C         2.09129460390996   10.51323225028818    6.42530699934998
H         2.41127040509686   11.52482049536877    6.61635234866197
C         1.19886862175442    9.87311755475538    7.28338839436134
H         0.81796438319570   10.37606601606385    8.15837539706344
C         0.79742612340577    8.58981449753675    6.97616469650300
H         0.09006776120598    8.04441932540007    7.58000458656377
C         1.30754795472465    7.98736457670419    5.82638289448099
C         0.94993378132745    6.68042741321819    5.35600473261032
C        -0.00477498143964    4.68520882914495    5.19529965585744
H        -1.05359530012624    4.58836156220660    4.90263306530332
H         0.28878086815413    3.81237256360729    5.78478447061754
C         0.92554892293139    4.92216404104971    3.97205414674125
C         0.13719976559710    4.94315531892647    2.66219994515921
H        -0.49129049412719    5.83080100105589    2.62494634238881
H        -0.48260442077818    4.05268535222035    2.58535941945688
H         0.81870961779630    4.97124850703065    1.81659890044983
C         2.06620647667594    3.90561406151315    3.90510211701145
H         2.79079250233973    4.22299142514022    3.15696464816622
H         1.67835419182806    2.92804115995173    3.62952049820821
H         2.56814291932440    3.83005205365635    4.86774142382242
C         2.04857533389174    6.82812780625321    0.46120937856253
H         1.07250350002485    7.26924643255073    0.62606770544616
C         2.43825795397956    6.37896840064269   -0.78622978626671
H         1.75537890829236    6.45612647021164   -1.61684979556641
C         3.71405339071309    5.84485641255637   -0.95871677907347
H         4.03788365646812    5.49136918843669   -1.92504086663078
C         4.55990630667987    5.79849191498250    0.12973453856346
H         5.56843247606790    5.42331417669141    0.06310542111213
C         4.09891173543100    6.27892581285022    1.35525040234813
C         4.87450243731708    6.33558961598106    2.56035179741475
C         6.55689381022557    6.16604219249944    3.99501472735066
H         7.40504899024621    6.85359583476269    3.93674790839255
H         6.87686211595789    5.23568839999617    4.47189378672523
C         5.32918717018878    6.80996346115118    4.69943114186574
C         4.81076993069881    5.95509604557454    5.85690479279884
H         4.68612157240559    4.92078125687715    5.54220145144331
H         3.84666425910110    6.33881697703035    6.18704754917803
H         5.50957466570010    5.99095540394895    6.68897961600677
C         5.63182344285691    8.23387830639338    5.16651805509083
H         5.74258389894342    8.88842336967295    4.30397477412600
H         6.54629231904942    8.24682721118540    5.75527486437116
H         4.81492615120085    8.60821378601317    5.77731663951658

