74
CSD_code = AJEZUK | q = 0 | S = 0 | Stoichiometry = C38H30ClIrO2P2 | MND = 6
Ir       -0.23596264606561    1.99201119693435    2.35491923013478
H         0.16358121884462    0.90041543240397    1.34090800414906
Cl       -0.92278516512296    3.68212555381921    3.91778914573700
P        -2.08551216946301    0.77350086672414    3.14985106245560
P         1.29484839226826    1.47765962415817    4.11910981939101
O        -1.21587615793566    3.33411335723823   -0.01931033079574
O         1.19232865111408    3.82404890977148    0.57455610263728
H         0.30303886622481    3.68125621334120    0.08724293265845
C        -1.54028017395403    2.71056160140906    0.98960107445815
C        -2.99023964304358    2.54806946969214    1.29825868169713
C        -3.41204166417496    1.69660993034107    2.32586354343562
C        -4.75722463164122    1.61431214138868    2.65879564980480
H        -5.07266839482473    0.97488346460209    3.47294605387032
C        -5.68603270884286    2.36640791872426    1.95913925405129
H        -6.73259629776096    2.30482507176589    2.22062453083190
C        -5.27624827132336    3.20130189941244    0.92982597491853
H        -6.00554321762749    3.78820131600097    0.39107517562732
C        -3.93718374257302    3.29504585324208    0.60079886906884
H        -3.60075742541420    3.95268004285328   -0.18735138907976
C        -2.28675242356427   -0.93681541522122    2.54748711081868
C        -1.18831622412825   -1.77720353788111    2.71390325568275
H        -0.28588613832503   -1.38084028746524    3.16446563980698
C        -1.24605470949806   -3.09364628861993    2.29918156577702
H        -0.39147429393708   -3.74071700876801    2.43412221539262
C        -2.39975521367146   -3.57776334789391    1.70250015424311
H        -2.44722514597626   -4.60507664726511    1.37265664992018
C        -3.48836163061604   -2.74154560313889    1.52037012365209
H        -4.38360617883171   -3.11709712690873    1.04629238111681
C        -3.43682529246972   -1.42355876446156    1.94116342728027
H        -4.28717644305111   -0.77437594563972    1.78935488506451
C        -2.69142292930202    0.63116161804854    4.85936008982055
C        -3.09648769699592    1.78956384892532    5.51827973324600
H        -3.06895713330042    2.73623973656988    4.99943931334354
C        -3.51378133014782    1.72817104681326    6.83393050318979
H        -3.82167654073381    2.63115979453396    7.34021648942975
C        -3.53838704562563    0.51443511391962    7.50090452914145
H        -3.87031578879022    0.46744716535633    8.52789651143909
C        -3.13533448975512   -0.63928544656722    6.84953419647586
H        -3.15475823608286   -1.58842098085721    7.36635802513839
C        -2.70330339577372   -0.58408905086121    5.53697051342599
H        -2.38434485273655   -1.48784322656941    5.03612275074481
C         1.18459940640944    3.19156301414578    1.70421078445531
C         2.31626868647809    3.51342665848586    2.58512186860012
C         2.47552125501686    2.82739737139285    3.80022203713140
C         3.50887223226239    3.16051532899932    4.66235643185651
H         3.62648396635138    2.62337450683832    5.59332752508941
C         4.38287525262296    4.18259404284823    4.33249916816102
H         5.18414675826534    4.44374672057537    5.00827368623295
C         4.22999029369304    4.87168200526141    3.13730610230657
H         4.91196065796913    5.67071920045768    2.88675862208882
C         3.20854696137718    4.54275344215503    2.26904695979137
H         3.07895821205880    5.07810971261228    1.34060016678153
C         0.81159523612419    1.66435896660297    5.85425766453275
C         0.78795902707114    2.89866763839132    6.49275954426705
H         1.14599456836203    3.77869822114574    5.97897447468582
C         0.28509915596329    2.99747560270084    7.77741927537306
H         0.26294344095084    3.95873447132947    8.26990831013682
C        -0.19565860127403    1.87398433016596    8.42879686411705
H        -0.58700356300814    1.95696372334943    9.43221883337114
C        -0.18337582623294    0.64374059086103    7.79144202717868
H        -0.56332893460554   -0.23275863698407    8.29563400379429
C         0.30399870923882    0.54084764831291    6.50348957447645
H         0.30033793342205   -0.41404750907949    5.99145412185647
C         2.48426421731161    0.08897490116491    4.19047196485059
C         3.17571182064515   -0.26995980601555    5.34250175321528
H         2.99354371792498    0.25208901518569    6.27163775553796
C         4.08913324146073   -1.30793771650184    5.30398110444270
H         4.62330475899386   -1.58424027688457    6.20171529114273
C         4.32093214925405   -1.99221677733970    4.12180431539892
H         5.03418919350146   -2.80297584415137    4.09902408229361
C         3.63550789079849   -1.63703986104355    2.97158355716729
H         3.81229595559664   -2.16958453972900    2.04866036913000
C         2.72078037104579   -0.60059943310075    3.00584764729914
H         2.17531016977266   -0.31548622206979    2.11574066393646

