43
CSD_code = AJIFEE | q = 0 | S = 0 | Stoichiometry = C8H24Cl2O4OsS4 | MND = 6
Os        0.43629164332371    3.48256870509320    2.64908697094812
S         1.41767484889101    4.95871716574880    1.30624980798967
S        -1.00959832330030    4.89967445198749    3.63158193901898
S        -1.15383873102905    2.96963432654904    1.08929306443337
S         0.75645484292912    0.97173037559545    4.35608044908240
Cl        1.97620108876189    3.98952049793536    4.29604507427072
Cl        1.78044047393384    1.81084388970286    1.77856407101353
O         0.88271345028469    4.95856355703236   -0.05104034969882
O        -1.46226658905751    5.96084189049809    2.72774789974629
O        -2.21234179749194    2.18349213222869    1.72719239341691
O        -0.31746896508299    1.97235837265331    4.01006329085254
C         1.44626162599739    6.68668381602089    1.87125495615445
H         1.92835113644119    7.29308328993056    1.11430762792576
H         1.99020042486294    6.70781199875523    2.80820317788553
H         0.41699624520111    6.99979534025872    2.01224298485793
C         3.21379362902082    4.72255119017910    1.16137136553699
H         3.37789868673888    3.75280025577326    0.70373715653145
H         3.62037859276089    4.72923764411974    2.16634719316760
H         3.62675083502480    5.51290786017209    0.54692161642780
C        -0.55976956129277    5.74390437871030    5.18699459827208
H         0.30411356354116    6.36844734735250    4.99223979763301
H        -0.29907153613737    4.98597809707932    5.91457308609476
H        -1.40202261620410    6.34460913607031    5.50856195580782
C        -2.51272347486243    4.08260545183527    4.24483721217060
H        -3.25936695652386    4.84150405743923    4.44639384083095
H        -2.25156474857801    3.52455411453459    5.13483774131799
H        -2.85083727500701    3.39796551911409    3.47183530897812
C        -0.62581357091333    2.03402179887740   -0.38164630363816
H        -0.12400809012404    1.13231180509218   -0.04989083191951
H         0.06673251257122    2.66913649788183   -0.92054887935805
H        -1.49989211386529    1.79276960704590   -0.97409967936866
C        -2.02196906528247    4.29445171777197    0.19345217402818
H        -2.88019653686476    3.85108127940075   -0.29693797172182
H        -1.32667895030149    4.72991558177055   -0.51156696208434
H        -2.33471841440280    5.04332250759359    0.91285873881186
C         0.18851395682087   -0.55410350906237    3.52925533566736
H        -0.89412008388368   -0.52981485935513    3.49093675870413
H         0.55139765046156   -1.42139007534705    4.06649187858164
H         0.59818414764975   -0.53828051145643    2.52557357615664
C         0.20766435030256    0.47861016903002    6.03819066173682
H         0.37938695878841    1.32852300203449    6.68933250491701
H         0.79956364313675   -0.36403993265548    6.37391336259363
H        -0.84679690723668    0.23220005904337    6.01556140619253

