37
CSD_code = AKIHIL | q = 0 | S = 0 | Stoichiometry = C15H18Cl2SiZr | MND = 12
Zr       -0.01420010921984    2.27099591165255    2.57398544957033
Cl       -1.75639110694894    1.08087574721813    1.57803922217106
Cl        0.88821376628930    0.52207003481789    3.83562732735654
Si        1.81174060988080    5.03874974535130    2.85234394284234
C         0.19264922015834    4.47548810692518    3.65973020933757
C        -1.05389546282687    4.48073860962176    2.97420355164783
H        -1.34416151468682    5.18653091060772    2.20393749314447
C        -1.91639332475259    3.55137361635683    3.59114980990007
H        -2.96851767934009    3.40853034592340    3.37274016771905
C        -1.20576080370500    2.93120433023773    4.65200084915607
C         0.09615614350549    3.48543275819452    4.67783437800974
H         0.85114692383639    3.27434866604824    5.42824338268675
C        -1.78052310492861    1.89717491957473    5.58587796414794
H        -0.98605617591036    1.50515014519720    6.22811942866290
H        -2.55068162178899    2.35483226533099    6.21596996285416
C        -2.38437101135931    0.77841276456433    4.78022909945531
H        -1.67386168520051    0.10521109392853    4.30808852965627
C        -3.68326983183682    0.60333630919583    4.62023093117830
H        -4.40718734425040    1.25375738188810    5.08661128482047
H        -4.07838603462161   -0.19552792652072    4.01708043902088
C         1.76831507308495    3.63200960741256    1.58557991539921
C         0.75952319697394    3.49470335090303    0.58636993403078
H         0.21031840626274    4.31118395958380    0.12970805119106
C         0.75396590282795    2.15924867738682    0.13446784411398
H         0.17914615994825    1.77060178792598   -0.69741907782931
C         1.71325021119776    1.44183838379802    0.88002686048934
H         1.99272169686845    0.40595434489859    0.72535225149047
C         2.32863795732669    2.34141557986348    1.77712707207269
H         3.16798766820041    2.10813933379928    2.42281897129528
C         1.70644037413204    6.77339730786773    2.07414497883247
H         1.63515164762833    7.53435294869512    2.84353560267190
H         0.84344993483660    6.87785066548667    1.42519190966723
H         2.59144456173900    6.98257731575143    1.48319120228078
C         3.28237175508229    4.86186588852495    4.04906569381493
H         3.33610791224275    3.86333208674712    4.47343401498549
H         3.20115475553871    5.56810489991827    4.86813262077750
H         4.21946293381528    5.05803812532044    3.53972873137596

