75
CSD_code = AKOBIM | q = 0 | S = 0 | Stoichiometry = C29H40ClIrN2O2 | MND = 4
Ir        7.56955053330468    6.41401958154441   12.36572664974532
Cl        9.76471201852700    5.93524111213321   12.83444158446845
O         8.21274799176258    8.62408564405800   14.30727576922300
C         7.86077762514866    7.81984765126544   13.57161216088316
O         4.65952973037681    7.07312594815682   12.02871794169660
C         5.77916535243111    6.79399518832335   12.10450509004761
N         7.78848551630672    5.03933249615141    9.74158563835915
N         7.86219838457315    3.55097673795847   11.52530192254884
C         7.68302044369279    4.78152692898331   11.04723089874860
C         8.21469356124956    4.14996539595653    8.67356365696987
H         9.21125509795917    3.75533627689170    8.86613884633085
H         8.24386412994686    4.72604175566212    7.74979311751641
H         7.53000963244005    3.31149931690656    8.54157841478357
C         7.74010884960783    3.32209342264261   12.95697566226647
H         8.70847391393647    3.43354516863971   13.44824740660287
H         7.37253091966861    2.31099876610977   13.12845480733844
H         7.04303891630075    4.04408712571003   13.39352474226961
C         7.41711027964073    6.35241915801131    9.28111936753935
C         8.38069553983327    7.36654494118552    9.21855208771567
C         7.99123321931899    8.61620623609986    8.75093325854529
H         8.71560712382603    9.41301553370555    8.69752144385948
C         6.69444812879449    8.85145812366558    8.34219308659166
H         6.40860333728525    9.83091390480378    7.98867778067275
C         5.76962076342267    7.82586251514844    8.35522126534181
H         4.76961140544309    8.01083152096998    7.99708740804427
C         6.11242548402704    6.56103635104884    8.81156073256953
C         9.83080708430068    7.11671508975557    9.56071509393495
H         9.91213445996122    6.18649201608399   10.12733383388949
C        10.64269684801855    6.96598367510512    8.27009585970129
H        10.27053760920427    6.14192956955930    7.66452263193323
H        11.68622771244752    6.77351799779915    8.50894730167925
H        10.58651807455502    7.87583006934042    7.67590931514021
C        10.41613446184931    8.23518642553345   10.42371120288448
H        10.57572489325238    9.14456644801835    9.84930425261542
H        11.37228948110008    7.91830636781537   10.83307829461690
H         9.74785896707356    8.45894948092261   11.25310623034992
C         5.11290430166129    5.43128581165605    8.70783711075126
H         5.45447934801157    4.60435171935215    9.33556867153858
C         3.70772702745736    5.81726139075857    9.17164257358447
H         3.73274712206911    6.27953944170015   10.15238452030988
H         3.08546976243826    4.92628589444630    9.22572456577094
H         3.23870512082953    6.50809444536654    8.47622792766334
C         5.04518956599146    4.95790426548749    7.24984581445078
H         4.72167701390379    5.77425122946827    6.60797377595378
H         4.33160229051317    4.14252485421452    7.15248122731148
H         6.01381430971705    4.61460479334758    6.89514494149011
C         8.24190899266556    2.34826030040527   10.83751095597407
C         9.59566438429635    2.02374003687144   10.70028656060297
C         9.92498418348843    0.82410107138897   10.08132968045440
H        10.96290818814973    0.55519811152735    9.96182250768176
C         8.94492423749055   -0.03683946322996    9.62919658889380
H         9.21962164799009   -0.96667642479519    9.15371163420281
C         7.61194672083887    0.28328980373436    9.79951706055902
H         6.85379159235787   -0.40504321057299    9.45970818093744
C         7.23744903193264    1.47367180791731   10.40813216524259
C        10.68824180441969    2.91195226750322   11.24732248679156
H        10.25685153153176    3.85106174453038   11.60246533484321
C        11.74889228666854    3.26026766006367   10.20039283424377
H        12.28746481669855    2.37650581025264    9.86587823422835
H        12.46649957220967    3.95120640294627   10.63622525774242
H        11.30686756899403    3.74085729683640    9.32949964432746
C        11.35020149242231    2.21990456628239   12.44379368336057
H        11.89122934469756    1.33040856512524   12.12732466114620
H        10.60634288576560    1.92188067482647   13.17960151898035
H        12.04970607442037    2.90169460774443   12.92061466339243
C         5.77098582860770    1.78726455119285   10.60720871829618
H         5.67389988102735    2.81208389820256   10.98147256912144
C         5.16332858871537    0.84048648915901   11.64688347140451
H         5.22502996881512   -0.19089571318359   11.30751270043084
H         4.11694204501536    1.08831923481862   11.80925456083758
H         5.68345190480945    0.91536315856592   12.59903208647799
C         4.98696215391818    1.68168625684709    9.29625326810237
H         5.46094821263784    2.25988648173591    8.50662023839388
H         3.97688908699294    2.05894348425083    9.43959555271118
H         4.91670261925400    0.64893274160051    8.96453729437474

