51
CSD_code = ALAWEP | q = 0 | S = 0 | Stoichiometry = C24H21Br2N2NiP | MND = 4
Ni        2.34595678986781   12.70354786559998    5.97201243481141
Br        1.38659478370328   11.93876876930211    7.79408380636785
Br        2.20480671896255   10.75089581967766    4.93248300474920
P         1.85371085665605   13.60767724138256    3.08421483079087
N         2.82252060535209   13.69505697434153    4.34280879545318
N         3.22338621775922   14.36217126161553    6.81907319090087
C         3.89008817505945   14.65098156487611    4.50815133932271
H         3.76930168774997   15.53235554925373    3.85892224572144
H         4.86868274115367   14.20189672823703    4.26541969771416
C         3.93037161366491   15.08827798969671    5.94764391457588
C         4.68204049521273   16.18688418029731    6.34477004731106
H         5.23864425212225   16.74267871932968    5.60551662238619
C         4.70146578011750   16.54547904907223    7.67943374464054
H         5.27992077034065   17.39442725464616    8.01173253659769
C         3.95924839615967   15.79231796976628    8.57654454619528
H         3.93883877082990   16.03166265455877    9.62718877469117
C         3.23700515573033   14.71268609834261    8.10442299126283
H         2.64683316146155   14.10351320723457    8.77684477490451
C         2.42890247815659   12.61548400545731    1.66737810844892
C         1.79999412022855   12.72406046511013    0.43045643926074
H         0.96126039871990   13.39806432404878    0.31166614115413
C         2.25787566281466   11.97668139852352   -0.63762626245859
H         1.76904178848113   12.05475291451632   -1.59777784544940
C         3.34326077704471   11.12819263136527   -0.47671708276067
H         3.69520399761441   10.54409479186488   -1.31399089250121
C         3.97691109954852   11.02966564415697    0.75054173936095
H         4.82156997203900   10.36931898335195    0.87440171570301
C         3.52227329222943   11.77506177515588    1.82383433832214
H         3.99904594527799   11.69645070713419    2.78987652622387
C         1.59483462880961   15.26010881676041    2.36506589225362
C         2.56696360054379   15.77574604203718    1.51371357782321
H         3.39559763809396   15.14843027629499    1.20913903435909
C         2.45976029930440   17.07371876935860    1.04786978436246
H         3.21428766201493   17.47237647717246    0.38582497859288
C         1.38504651976212   17.85963340292500    1.43221200180223
H         1.30038917198888   18.87185551243756    1.06618558577727
C         0.41859878805911   17.34940913433401    2.28443404803246
H        -0.41957175486700   17.96242665525899    2.58090768022192
C         0.52545433657112   16.05429543671638    2.75913162684923
H        -0.22654574478007   15.65096484184738    3.42375591773826
C         0.24578558191082   12.99734848291870    3.64444361244589
C        -0.50467771609499   12.11036967481510    2.88507575303358
H        -0.14054891443681   11.78132886663904    1.92272482951174
C        -1.69414109187145   11.61488365686298    3.39048858209595
H        -2.26843843792598   10.91046810216109    2.80804821269868
C        -2.13206955365326   11.99749502955051    4.64731217768188
H        -3.04727433925533   11.58910348025577    5.04762263525831
C        -1.39062901556511   12.89228519081498    5.40344558834373
H        -1.72233846385015   13.17878982768964    6.38995641695589
C        -0.20309678772501   13.39612824759681    4.90417549670829
H         0.37065708889941   14.11542753763328    5.49025634374624

