33
CSD_code = ALIZUR | q = 0 | S = 0 | Stoichiometry = C15H10ClN2O4Re | MND = 6
Cl        5.48615683040610    4.64785283633885    8.89711546618746
Re        5.53769273340429    2.68731512865271   10.24452934941535
C         7.00833008162729    3.50182001984445   11.23559951991318
O         7.88919562226572    4.05502265383885   11.70929548007265
N         6.73477009410398    2.00112682920214    8.59773256525899
C         2.71269624400560    2.12072908538144    8.96965234675887
O         3.40570685274013    4.04846740869729   12.01851998942628
N         4.09578141681026    2.03957829439496    8.80378807513347
O        -1.37726261598003    2.41240766537833    9.54249615075395
H        -1.64657678922390    2.03848171695297   10.39093160338747
O         5.63964227808063    0.00327764681309   11.77481393462614
C         4.22023167976491    3.50616795467665   11.42822671801837
C         8.73554480967467    1.77471259199492    7.32121905954110
H         9.81335694810195    1.78283021774043    7.30820574440207
C         2.13618524968231    1.60199867811184   10.13105395973219
H         2.76803822956594    1.12199301147957   10.86536680081131
C         1.89263275281434    2.74275196286049    8.02435177989989
H         2.33142002852178    3.20521835783659    7.15267026420365
C         0.77512560707431    1.68025693712359   10.32836309323115
H         0.33760619508839    1.26645175272729   11.22649344743571
C         8.05918663990233    1.98447154192631    8.51069858008433
H         8.60426303042599    2.14928278622386    9.43113432779360
C         6.01891480951130    1.79339747215368    7.47323417886413
C         4.58747698604262    1.82236643858896    7.63280097731625
H         3.95985914378250    1.64106971637403    6.76340511616589
C         0.53538760984991    2.84145201811181    8.23372424821260
H        -0.10153730928616    3.34290100129116    7.52301844130266
C        -0.03914249707354    2.30219871594047    9.38357939092886
C         5.60723513617961    1.01126506701672   11.22182479963671
C         8.00556383191742    1.56591240326005    6.15777711572578
H         8.50331915775316    1.40824663603374    5.21336537302764
C         6.62800561749782    1.56738634741625    6.23724138497752
H         6.01399359497162    1.41188910561709    5.36357071775566

