54
CSD_code = AMACAS | q = 0 | S = 0 | Stoichiometry = C15H34F2P2Pd | MND = 4
Pd        5.31898038060959    7.28400311463372    0.01731086772309
F         6.11788211064894    5.81104221787282   -1.07352033533791
P         4.50938399793774    5.59043678925078    1.20314488624223
C         3.32173471445488    4.50292448068644    0.25698793488774
H         2.61465723023869    4.04193712225226    0.95997341314086
C         2.57100511124157    5.42074811567865   -0.70981514348345
H         1.95001529004593    4.83844958869338   -1.38865027249250
H         3.29896369034344    5.98801429952161   -1.30704621278828
H         1.92520065152699    6.11542678283354   -0.17453300596727
C         4.05074898249264    3.42103664418678   -0.53396073996051
H         4.83523026189433    3.87230803444185   -1.13732789786400
H         3.35091903665025    2.92165397759607   -1.20252453736361
H         4.48814434900297    2.66785451818239    0.11698854231114
C         5.88202051242582    4.49067820973798    1.79169141270805
H         6.21470361119958    3.96450033510822    0.89096395653988
C         7.02937756005965    5.39623846723116    2.23852033253018
H         7.90437182703283    4.80376335146003    2.49976442882585
H         6.74896076889084    5.99181096106408    3.10819934005529
H         7.30099583445261    6.06606788246309    1.41115891692770
C         5.48228615118650    3.48033436671301    2.86181105277627
H         5.26527698587098    3.97121775576233    3.80813874832440
H         6.29851984244420    2.77934642112245    3.02891841607120
H         4.60443903341127    2.91272755908286    2.55929705916098
C         3.58901655439597    6.00481703417565    2.76056974026351
H         2.94244300074696    5.16040918615294    3.01409534151972
H         4.32248000405647    6.11766470748091    3.56327752882444
C         2.75288320702377    7.28399573465956    2.67179462954568
H         2.03682819230062    7.28398996941675    3.50015006672357
H         2.17553202418418    7.28398933450077    1.74500168523414
F         6.11794771903445    8.75694845725232   -1.07349128884850
C         3.58898968022715    8.56319159868742    2.76056783189614
P         4.50940834843115    8.97756317599647    1.20316963562035
C         3.32177780732224   10.06505979336221    0.25697022189595
H         2.61467642255261   10.52605235159578    0.95992842011909
C         2.57108024426897    9.14722203102918   -0.70984526447487
H         1.95009978081015    9.72950929773734   -1.38869835769002
H         3.29905939784064    8.57995925243126   -1.30705836954122
H         1.92527191454546    8.45253942507183   -0.17457272938199
C         4.05081084815357   11.14694233959778   -0.53396890314339
H         4.83531520985790   10.69566802041586   -1.13730446491401
H         3.35100017440886   11.64631232626789   -1.20256261164273
H         4.48818029221760   11.90013565288243    0.11698492312842
C         5.88201959919145   10.07733487707576    1.79174721727681
H         6.21473610947539   10.60349905884797    0.89102428140895
C         7.02935914217241    9.17178265465127    2.23863258554057
H         7.90434350402672    9.76426126016620    2.49990095364677
H         6.74890974158090    8.57622273234947    3.10830938603416
H         7.30100452274788    8.50194183414617    1.41129250494250
C         5.48223801517251   11.08769322927253    2.86183531834698
H         5.26519568925485   10.59682456707406    3.80816310370990
H         6.29846107774199   11.78868884193188    3.02896213323572
H         4.60439887666059   11.65528937050039    2.55927818235492
H         2.94238978342055    9.40759274699866    3.01404931842918
H         4.32242518211693    8.45037814269452    3.56330581697359

