45
CSD_code = AMALAB | q = 0 | S = 0 | Stoichiometry = C16H25ClNNiP | MND = 7
Ni        0.33509500695305    4.30992373503891    2.28909228845119
Cl       -1.37237737262124    3.70393476631961    1.27337759859686
P         0.94208088499841    2.25636438664490    2.48496934619915
N        -1.75761666784157    9.50257942627250    1.23028613035164
C        -0.12458389544869    6.32060978356061    2.39426142707009
C         1.25912409318790    6.16372409605118    2.14132756146977
H         1.78339084723841    6.54265913199055    1.27638015069492
C         1.81766622435533    5.40078679829239    3.18554494349964
H         2.86997132324649    5.18455959115616    3.30804408937959
C         0.84656608031942    5.33773363226252    4.26966713702404
C         0.92723782740672    4.88431078682339    5.58121667386262
H         1.84674794232553    4.46275102911120    5.96420255306889
C        -0.19003350058682    5.00021990448630    6.38992221849995
H        -0.14049332272488    4.66751428465475    7.41671671770201
C        -1.37786987831678    5.53988721143752    5.90559713797069
H        -2.23106922607099    5.61234928392535    6.56398418889076
C        -1.48505020165287    5.98801129928210    4.60047826610016
H        -2.41521989075022    6.39531063477150    4.23233419473360
C        -0.36939570904275    5.90161501413462    3.77529759817219
C        -1.07326352760036    7.15331580513086    1.59190082518842
H        -2.07200804471012    6.71753779459880    1.64027238238575
H        -0.76139459431437    7.18380484500175    0.54638438336502
C        -1.08741974042228    8.58990596520927    2.13802270484581
H        -1.54324720840402    8.60011396860000    3.14492735437624
H        -0.05165941597203    8.92766014968623    2.24061650504846
C        -3.18743823242821    9.27745487145292    1.17969381478093
H        -3.67098398013382    9.41370830682786    2.16118344360449
H        -3.38796402920974    8.26882822230885    0.82651169254459
H        -3.63061836475744    9.97940471977084    0.47483484109049
C        -1.46419301221999   10.88214177551736    1.55721664188377
H        -1.82544380219800   11.17146410651664    2.55755181548671
H        -1.93601097635281   11.52919158903080    0.81901514213332
H        -0.38741280085866   11.04204704190272    1.51823113758763
C        -0.23148591109989    1.32767586217148    3.53880820596314
H        -1.22215061446994    1.39573857230498    3.09277759446263
H        -0.26202323552624    1.77730683465771    4.53034411707788
H         0.07511578161571    0.28529040429178    3.61450936382647
C         0.95792182364941    1.23678949101989    0.96794648907397
H         1.72709603295958    1.60054773350384    0.28939189576845
H        -0.01095066252910    1.32950481204610    0.48139369512340
H         1.15415048214085    0.19594637854668    1.22180407686249
C         2.55126616499308    1.80481799745134    3.25067486378409
H         2.64344678203284    0.72262263587020    3.32409291209764
H         2.61326963544584    2.24122392251869    4.24515619978046
H         3.36623088553185    2.19581139766031    2.64493767994482

