38
CSD_code = AMEBOL | q = 0 | S = 0 | Stoichiometry = C17H16AuClN2S | MND = 2
Au        2.05261947802897    2.62224474285651    2.68181621998710
Cl        4.09222011015973    3.41762203153949    2.19280553480038
C         0.23881910848567    1.89654253895252    3.12915643330446
N        -0.94295745878893    2.54658005433433    3.07672083332493
N        -0.05823722473432    0.64043065248435    3.50199840902943
C        -1.96833411491732    1.69855817131418    3.40974857884948
H        -2.98912729328177    2.01819108210176    3.44027165664582
C        -1.40640323882415    0.49980963260732    3.68838773909848
H        -1.84927459622256   -0.42364442083849    3.99856956928284
C        -1.11919292492040    3.89724342020799    2.71113921144616
C        -0.32859366079037    4.89330965415617    3.27718076105596
H         0.42177296795361    4.63476546273897    4.00688391607232
C        -0.51275961018477    6.20631032942091    2.90548294202498
H         0.09860292734159    6.98405750287212    3.33519104329197
C        -1.48998875705491    6.54969934495714    1.97045088037444
C        -2.28534128185556    5.55411599720418    1.41643743109252
H        -3.04932492397631    5.78751641944224    0.69311594106536
C        -2.09780068357972    4.23563171365467    1.78668769830142
H        -2.70729697197390    3.46347217639993    1.34034765581560
S        -1.63399449168041    8.25994564870594    1.58513833542836
C        -2.89159050342731    8.31472795472445    0.27617861878959
H        -2.56874723701563    7.71860050113586   -0.57210120486286
H        -2.96219096610162    9.35850113695940   -0.01371825071642
H        -3.84916063497333    7.97565528159406    0.66049324684831
C         0.90366741635389   -0.40706653424148    3.75123920219574
H         1.83891992581381   -0.11638344779953    3.26396303242537
H         0.53704366357930   -1.33722743550651    3.30855403180461
C         1.11851441558803   -0.57494507694244    5.23636150037503
C         0.63477753087432   -1.68832620179307    5.90769375919908
H         0.12365707133739   -2.46796916485799    5.36018002028434
C         0.81492666546924   -1.81182781793596    7.27497535233976
H         0.44049377189040   -2.68463962568409    7.78883197439108
C         1.47239023216850   -0.81910300780623    7.98000608756721
H         1.61190489908085   -0.91555575219700    9.04623519592692
C         1.95510967222835    0.29609709469805    7.31475713290561
H         2.47308663695519    1.07042292269340    7.85999023770452
C         1.77915419633567    0.41826229772464    5.94877190857710
H         2.16073588461439    1.28277471970115    5.42325736388884

