89
CSD_code = AQIMAP | q = 0 | S = 0 | Stoichiometry = C40H42Br2N4Pd | MND = 4
Pd       -0.14221553202555    2.85735469016822    5.24879110122741
Br       -1.62656244177472    1.18227855926933    4.19321689522476
N        -1.25635999719293    5.39816588984000    3.77791783445942
N        -0.26247723431673    3.93899236038955    2.55238784861139
C        -0.65308642607980    4.19299855841596    3.81761887109777
C        -1.24702819448312    5.89218877282788    2.49529187591191
H        -1.69451464204500    6.83171845523271    2.24807455668898
C        -0.62198209048182    4.97174817514875    1.73097515788943
H        -0.39373844415748    4.98433629628458    0.68661901415040
C        -1.72791887901405    6.15869070413462    4.87855258561639
C        -3.04313049058129    6.05002608428621    5.29469053499688
H        -3.70128208275076    5.35441700908688    4.79757279678966
C        -3.48345774853550    6.83480338243078    6.34695823196997
H        -4.50022059295805    6.74563151498931    6.69584896917502
C        -2.62502054080046    7.74003640115374    6.94025771694903
H        -2.97686964377807    8.36110601366561    7.75064617508265
C        -1.30766876082336    7.87653655394377    6.51421841024873
C        -0.84896319322829    7.06446057382565    5.47970586414283
C        -0.42462473942545    8.90775071037732    7.14959627706152
H         0.59053405426056    8.85345143359909    6.76449066524916
H        -0.40625410197149    8.77801327372424    8.23048461509461
H        -0.81633185418053    9.90374859915379    6.94404167911177
C         0.41222157671972    2.74006498973272    2.07005348217676
H        -0.29034941668384    2.17752654043039    1.45023454526285
H         0.66600103771084    2.11384099681495    2.93799312979264
C         1.66165618631450    3.09593348877805    1.30803592635411
C         2.82977906791638    3.37807235409924    2.02375148507742
C         3.96648781343818    3.77689534482093    1.33687463178237
H         4.86787959056646    3.99828528352932    1.89096717451622
C         3.97777244579230    3.88135188266625   -0.04558782510559
C         2.82762928975790    3.54354026571707   -0.74164496278098
H         2.83507388183915    3.58409370306830   -1.82196560733094
C         1.66938789623716    3.14587615162855   -0.08799754370006
C         0.48462165171055    2.71922863995813   -0.90858057274882
H         0.67127809401894    2.90788314878578   -1.96303017893024
H        -0.43174521487293    3.23529881195485   -0.62894754024643
H         0.31371069030202    1.64983879796961   -0.78321262647825
C         5.22081776773192    4.29917879554617   -0.77056774871026
H         5.87460381577608    3.43796616937842   -0.91143060126484
H         5.76986552371553    5.04575923550813   -0.20058101543937
H         4.98257465779016    4.70599386962399   -1.75054725512787
C         2.89625497110910    3.18772758471190    3.50753488272041
H         2.82997757655479    2.12260897515951    3.74809801888768
H         2.08589591664371    3.71032506538902    4.03401972990319
H         3.84465495094478    3.55069150323232    3.89493511549711
Br        1.34234563241985    1.18457457556659    6.30602789282609
N         0.96986576816546    5.39937550226416    6.71999997394425
N        -0.02537753826788    3.94032499164711    7.94467420629184
C         0.36551812297553    4.19486331818895    6.67968247417305
C         0.96056494541638    5.89280195243921    8.00280756715543
H         1.40849910403779    6.83189983518927    8.25081390589001
C         0.33452997493405    4.97252116493586    8.76659407073196
H         0.10634443571912    4.98503442783981    9.81095839505977
C         1.44276112889365    6.16043079761995    5.62030770625365
C         2.75901806501963    6.05394069295986    5.20707823495949
H         3.41725475310830    5.35914128954489    5.70523664124978
C         3.20050126231526    6.84013083098671    4.15628606749353
H         4.21852038998900    6.75356222249297    3.81038568610988
C         2.34169441923180    7.74354831239901    3.56083494016828
H         2.69418508781683    8.36549416818491    2.75139640208879
C         1.02297251662406    7.87745021466677    3.98367547923840
C         0.56362114689047    7.06499683257594    5.01748362380888
C         0.13926556607537    8.90657905497633    3.34585908445998
H        -0.87748513835992    8.84796483666475    3.72607768900187
H         0.12659884578839    8.77847413514868    2.26469519989492
H         0.52621708901877    9.90372101735482    3.55496552693182
C        -0.70003647365250    2.74096718428391    8.42621209701750
H         0.00206636191185    2.17897293497662    9.04706534685225
H        -0.95207977692249    2.11447615018784    7.55792957498318
C        -1.95069437928872    3.09639921420366    9.18662974297938
C        -3.11832002357956    3.37716212943166    8.46949356156654
C        -4.25564383581608    3.77700090885694    9.15474769263098
H        -5.15627343876393    3.99838565630088    8.59940500621175
C        -4.26842426710701    3.88297681560097   10.53708762695928
C        -3.11921907935088    3.54532677780779   11.23468179842197
H        -3.12814841343192    3.58586248420352   12.31499007753834
C        -1.96014571676841    3.14730671297263   10.58261914115285
C        -0.77666112357532    2.72061373502911   11.40499647917680
H        -0.96444943345404    2.91026555556941   12.45904972132175
H         0.14034363945657    3.23582318636910   11.12602036593491
H        -0.60629206799186    1.65099937283598   11.28074596866682
C        -5.51225205507011    4.30172437745586   11.26020784590934
H        -6.16608592776844    3.44061987000089   11.40159421788518
H        -6.06078325943099    5.04741234594010   10.68856724021575
H        -5.27512601076327    4.70995162848503   12.23987681228507
C        -3.18412152440787    3.18354122054894    6.98615922890326
H        -3.12001633438860    2.11762093367721    6.74866055144270
H        -2.37230979521542    3.70285215405529    6.45863369308604
H        -4.13161883710285    3.54737286709412    6.59732312027960

