69
CSD_code = AREJUD | q = 0 | S = 0 | Stoichiometry = C25H37ClN4NiO | MND = 4
Ni        2.68633570366110    0.33891189996839    5.01414733975354
Cl        1.19321840797034   -1.21708200925891    5.02303446799993
C         3.39662695892351   -0.38132293079379    6.61652175472935
N         4.34704687884793   -1.32359374639072    6.75693034685949
N         2.88880378916767   -0.18786855823410    7.84816892189946
C         4.43810770190283   -1.71305669611373    8.06594723250396
H         5.13116775185683   -2.45405719175779    8.40592113710082
C         3.51815801930964   -0.99859453348487    8.75279742758401
H         3.27134841989966   -1.01088501756589    9.79394362878991
C         5.09584342595651   -1.88810057802064    5.65403925597210
H         4.73536776279570   -1.35828806308770    4.76047709876183
C         4.76993170464443   -3.37179324245738    5.50454863475917
H         3.69547167926681   -3.50072165780303    5.39374103190582
H         5.10396509739009   -3.93471682285753    6.37323890902880
H         5.26145351447101   -3.77304796950261    4.62233135691132
C         6.58886432697328   -1.62945522946285    5.82985246171130
H         6.77323583924839   -0.56322579314273    5.94318824809529
H         7.13158476583762   -1.98481830172052    4.95816585087608
H         6.97127493576803   -2.14681829022946    6.70688311553961
C         1.76326820394842    0.67928154400499    8.12816970447047
H         1.53521447386899    1.17311584662628    7.17028045128709
C         0.55270061137767   -0.15522423397344    8.53723962457897
H         0.32198183729274   -0.86654078702175    7.74693205525161
H        -0.30937187491978    0.48885378638137    8.68832902630968
H         0.74725880611153   -0.70003534227858    9.45840862836759
C         2.13403911121932    1.72671627728418    9.17301272214978
H         3.03133608789288    2.26219639848793    8.86958800574181
H         2.31585526224535    1.26215987551715   10.13955543318065
H         1.32232079174647    2.44071391549100    9.28502201092531
C         1.90883900939790    1.00524609686813    3.42030176258900
N         2.11718531983959    0.52284679489000    2.18123790113990
N         0.87952236983846    1.86584181799901    3.30920244780966
C         1.22750585682816    1.07623300365304    1.30134652395832
H         1.21231811220282    0.83409924886896    0.25917475049976
C         0.44663402592503    1.92107366001487    2.01188070267810
H        -0.36698626758585    2.53979791175490    1.69548530706274
C         3.07725807532849   -0.51612747487774    1.87160610648609
H         3.61111323219209   -0.70561831140893    2.81603231820587
C         4.06307614662529   -0.04210410067565    0.80879844737468
H         4.52634180505976    0.89396053362963    1.11377428693838
H         3.56106010316231    0.11123468056794   -0.14386355141408
H         4.84198396724038   -0.78677939217604    0.66802726819069
C         2.34707230977364   -1.79437390508148    1.46841879666464
H         1.67088733009883   -2.09123675172396    2.26750840613415
H         3.06265416110153   -2.59508952443494    1.30202108721003
H         1.77255965234941   -1.64495165361463    0.55696213470808
C         0.25881303574725    2.52894538838584    4.43649765717542
H         0.91665786991290    2.31899439323167    5.29211833938083
C        -1.10890462986353    1.90676666513835    4.70876185176876
H        -0.99418476862798    0.83586832389567    4.86445779782974
H        -1.78277965082970    2.06964367812248    3.87048686967040
H        -1.54921856834864    2.34484011480619    5.60048412459327
C         0.18704377380608    4.03564415499426    4.21348579711032
H         1.17497322447050    4.42890948757922    3.98320054396456
H        -0.17998479610932    4.52348217680221    5.11254043733397
H        -0.48692697941825    4.27780651445664    3.39507780172982
C         3.99476000551317    1.69078089387850    5.00667374137621
C         3.83838040319013    2.88240047322701    5.73339620888932
H         2.93982016704645    3.05276037949915    6.31511827021325
C         4.80202418544880    3.86891167291984    5.74308984301108
H         4.64596849371630    4.77379387472590    6.31682698321294
C         5.98505666950604    3.71324067065688    5.02011013099499
C         6.16161860873708    2.53786733507588    4.28688189282629
H         7.07657337958868    2.41582972204643    3.72412212851303
C         5.19138021585020    1.55942475196976    4.28276053910615
H         5.37948004752051    0.66969453172258    3.69357516894063
C         7.01065187960463    4.74545935417510    5.02755283015304
H         6.74735372011196    5.62968076021404    5.64759070675058
O         8.06640850937820    4.70349949962368    4.43905975617786

