67
CSD_code = AREKOY | q = 0 | S = 0 | Stoichiometry = C24H36Cl2N4Ni | MND = 4
Ni        2.69006930046985    5.28435920297181    5.05846035504733
Cl        1.20867413080053    6.85336241638287    5.06429216617478
C         1.91079484109707    4.61797882971426    3.46852523832448
N         2.11058489907252    5.10242587613716    2.22873620646641
N         0.88812069974213    3.74916345213815    3.36054964183254
C         1.22214482210727    4.54228746700120    1.35175283977175
H         1.20110269298886    4.78480874922862    0.30970314067650
C         0.45084769193182    3.69076328347179    2.06487810710680
H        -0.35893935080207    3.06555298816519    1.75127107366700
C         3.06263249044503    6.14804846188628    1.91796447560521
H         3.59983308881243    6.33680737359055    2.86077212294997
C         4.04634484491037    5.68349007418880    0.84895021949685
H         4.51296261826680    4.74702796542967    1.14752693670850
H         4.82241665964278    6.43153938755330    0.70993446867578
H         3.54158319151320    5.53396252076365   -0.10290690200541
C         2.32350231835006    7.42354624823104    1.52249307553576
H         1.64982641373378    7.71334035988310    2.32628220593477
H         1.74536966691938    7.27391240102537    0.61330073808063
H         3.03370116469827    8.22900115886356    1.35570009264184
C         0.28148000776121    3.07831686865476    4.49074027913274
H         0.94677873794735    3.28878761006929    5.34029462548710
C        -1.08721751869964    3.69139838817992    4.77852160008771
H        -0.97734964908921    4.76244326290938    4.93663030876430
H        -1.51603150745674    3.24777756783368    5.67312120948995
H        -1.76840882946912    3.52735801615421    3.94635886211074
C         0.21712145189501    1.57200851746634    4.26363396049700
H         1.20557631584793    1.18681233247041    4.02261057984796
H        -0.46360231051691    1.32751912868977    3.45150030250530
H        -0.13696501221091    1.07908758114611    5.16506758509971
C         3.40498716031821    5.99767147423250    6.65808817676574
N         4.36344649476106    6.93193587115256    6.79759945124092
N         2.89718234427212    5.80846683272396    7.89034028981686
C         4.45924372172627    7.32084707627499    8.10652595803385
H         5.15866559155415    8.05630787149631    8.44569141120445
C         3.53414928792178    6.61392130597420    8.79435203631585
H         3.28859343553726    6.62826549550639    9.83582032336085
C         5.11431398278342    7.48786490247057    5.69224879060030
H         4.75353653326078    6.95206040431635    4.80229423583832
C         6.60655604495574    7.22643126809976    5.87020817571205
H         6.78622396284283    6.16025428839113    5.99114597572283
H         6.99062020594141    7.74884220340990    6.74352138997959
H         7.15029230884878    7.57383868345793    4.99588184767364
C         4.79139546438079    8.97121379691423    5.53283192994900
H         3.71733851618155    9.10040760083569    5.41854893994309
H         5.28561383362792    9.36673034441374    4.64948660323885
H         5.12368002767000    9.53862974401037    6.39932433400294
C         1.76557859960787    4.94920049481401    8.16959410913518
H         1.53964928366693    4.45220657306184    7.21287343829452
C         0.55760878051050    5.79241582325381    8.56859105641349
H         0.33455965326379    6.50040566048269    7.77306516630018
H         0.75099596459473    6.34150362992430    9.48750635026866
H        -0.30860942145241    5.15376393971824    8.71917557466558
C         2.12527836335214    3.90443235622670    9.22085231865834
H         3.02101713644901    3.36284823807202    8.92393113038773
H         1.30905008450424    3.19539755379210    9.33167210110659
H         2.30475743241137    4.37206030847815   10.18638094329507
C         3.99869173514924    3.91566111204820    5.05247648150750
C         5.18425585905556    4.03026689222016    4.31752256046025
H         5.37773218990425    4.91027333575609    3.71625444942780
C         6.15680521574690    3.04389454139192    4.31541835163656
H         7.06054110115919    3.16781913872554    3.73692641339416
C         5.96172612108688    1.89682819086637    5.06014193429523
C         4.80556271143974    1.73595193617251    5.79892879678087
H         4.65414670201407    0.83814001524746    6.38003098724995
C         3.84663578024039    2.73560749897025    5.78901109487995
H         2.95793360340405    2.56875623359081    6.38558692573082
Cl        7.17619031658152    0.65118987331373    5.06758443100577

