44
CSD_code = ARITAW | q = 0 | S = 0 | Stoichiometry = C18H18ClN3O3Pd | MND = 4
Pd        5.83773768719209    0.33476494889238    3.82372377412167
Cl        6.62254575551288    1.77736700410042    2.13734447315019
O         4.98816686061566    4.34995507576199    6.42068151342169
O         4.26575567261055   -3.98230324967159    6.73249574725482
O         3.84678364313320    0.49209200209080    8.56828353947269
N         5.47153052778771    1.82165155271758    5.06521078398722
N         6.16707337317774   -1.10161512418707    2.64496338906651
N         5.74660203068734    3.09725195571529    4.66939814883233
H         6.18095423780926    3.09696162110091    3.73261896669185
C         5.11577144957921   -0.74724266371783    5.36635485500104
C         4.93642429407610   -2.10669014708257    5.51840724913109
H         5.20864391205279   -2.81090606011022    4.74401759341251
C         4.38997176454614   -2.62887421468108    6.69972049919840
C         4.01390396036226   -1.78519125591365    7.73958318141659
H         3.59218779417732   -2.19416982557457    8.64234401654046
C         4.18320122941029   -0.41083755234216    7.61298010089061
C         4.73526612935159    0.10877749908816    6.42880212300605
C         4.95196690924291    1.50955947819300    6.20841425665711
H         4.69577300492170    2.25474532921450    6.95154512102587
C         5.47825169320883    4.27353474242177    5.30857632291644
C         5.86626788662413    5.47795676741768    4.52094057131455
C         6.11291680442020    6.64663661556993    5.23844958332771
H         6.02288421567353    6.61747821156451    6.31407829871581
C         6.46650093275418    7.81114997062715    4.58492573611365
H         6.66314135437534    8.70958369644092    5.15107136047398
C         6.56474495375019    7.82328042514490    3.20320199890162
H         6.83913781968440    8.73208032343839    2.68787536792000
C         6.30255794568799    6.66984685672771    2.48201677948874
H         6.36785263417066    6.68141258167717    1.40423953303828
C         5.95492503332028    5.49802993848505    3.13052103199057
H         5.73926551339396    4.62077976828571    2.53923199393839
C         3.73104698638744   -4.59511125413461    7.88021672132141
H         4.34404921902051   -4.39713082636120    8.76553893297392
H         3.73656136599361   -5.66419111162306    7.67314338702688
H         2.70235612193362   -4.27066246628918    8.06823736082666
C         3.26972880722131    0.03972115749224    9.76884336181356
H         2.32201203636758   -0.47854652644111    9.58997124262570
H         3.08246256382336    0.93564302464362   10.35849500520329
H         3.94887565320946   -0.61886182010041   10.32007027846751
C         6.46939155172877   -1.67875655294190    1.69586207391061
C         6.83456571478123   -2.42520093360583    0.53119322070014
H         7.58025752296602   -3.17603497063053    0.79198130194445
H         7.25042842617475   -1.74735214717626   -0.21459465916210
H         5.95385700711482   -2.91738184424228    0.11882386190532

