69
CSD_code = AROFAQ | q = 0 | S = 0 | Stoichiometry = C27H34Cl2N3O2Rh | MND = 6
Rh       10.39013706994277    0.40591934759335    1.22346252226638
Cl        8.50772614845116    1.64561707848439    1.58490897096509
Cl       12.29217847967844   -0.87012454082479    0.91003117036693
N         9.36069620703658   -1.17093591760754    0.42513188447385
N        11.79527633524601    2.99286897554670    0.97511286493563
N        12.26054183195021    2.12015327580638    2.88046094551048
O         8.88769503726579   -2.25090768415807   -1.46254120044858
O        10.31135309047660   -0.92506745779532    3.28293579612814
C        10.39518088378937    0.98630437024969   -0.66894512657555
C         9.92662506489867   -0.01194919819776   -1.54378775257887
C         9.93952986130276    0.17242079372009   -2.92995836431487
C        10.40120308602066    1.38656809688948   -3.40740599573924
H        10.42094906454524    1.55216263611113   -4.47522594976689
C        10.80741719645964    2.41319641275751   -2.56406323166060
C        10.80988230591325    2.20813178334133   -1.17956256425765
C         9.46123511526467   -0.88886650690238   -3.86740372629387
H         8.40772045729320   -1.10105158500568   -3.69309072336445
H        10.00933018264974   -1.81483775565008   -3.70536039676939
H         9.59194444077097   -0.57432970526017   -4.90005917929475
C        11.21823176405337    3.72617336511750   -3.16469899939698
H        11.12794202029428    3.68772556911177   -4.24706462857715
H        12.25414961825294    3.96107252983397   -2.92074428096572
H        10.58627290482835    4.53372662910447   -2.79760099921645
C         9.39369924095788   -1.16845199835412   -0.86020368729918
C         8.48339133957257   -3.15021622668430   -0.42994858515298
H         9.08611356355838   -4.05940327852493   -0.51200457146234
H         7.43290458350218   -3.40234349695365   -0.58817538079219
C         8.73807783438773   -2.39056003855549    0.89248330409895
H         9.45013238056214   -2.93176493614216    1.52763710067123
C         6.43348601699260   -1.30286958277009    0.95696181617474
H         6.85247778232735   -0.37397647777957    0.57729199553636
H         5.60481108446830   -1.05053699778765    1.61389246510008
H         6.03992079061852   -1.88040941623576    0.12235660811324
C         7.48992535798271   -2.07728973138667    1.73965883177203
H         7.84058352298161   -1.43441977903527    2.55423234453517
C         6.91747121597436   -3.36056587378477    2.33359075570491
H         6.07543069182998   -3.12718315500796    2.98025733399781
H         7.66906627061751   -3.88079544735688    2.92328099831645
H         6.56964216773891   -4.03239090946263    1.55105271968063
C        11.13194637370128    3.35660218841011   -0.25428848725650
H        11.76656903915791    4.08842902568529   -0.75602219230394
H        10.17906128015974    3.84100909025744    0.00687394138373
C        11.51188740905389    1.94417614150843    1.76957297304835
C        13.00475642978284    3.26519237537321    2.77685245962106
H        13.66194337174947    3.58763317457163    3.55841248576686
C        12.70969552731258    3.81321516630388    1.57803894652260
H        13.07256560358688    4.70838717912086    1.11597499383119
C        12.22082923710828    1.33902506481156    4.06653299066324
C        11.16463574739912    1.54580756251121    4.96054865431520
C        11.12989895410056    0.78240341666864    6.12095888328390
H        10.31800051003116    0.92645220851433    6.81899912174534
C        12.11936553589354   -0.15010353894633    6.40689291118027
C        13.17033057959868   -0.30584169933458    5.51391649784404
H        13.95255608898454   -1.01701742550519    5.73541429027215
C        13.24745147590489    0.43405433977925    4.34089449136203
C        10.09855676719716    2.55137734401812    4.66517917225733
H        10.53538750957381    3.52427086719895    4.44214786919944
H         9.42607966647255    2.65629649789354    5.51193411172187
H         9.51154453509333    2.24881115363352    3.79426941345565
C        12.06854451062812   -0.94771955979738    7.67374403933165
H        12.58657550931639   -0.41242785900754    8.46997108580255
H        12.55509960407762   -1.91158204477456    7.54530087018013
H        11.04069442858541   -1.10776411304197    7.99069758369050
C        14.37790681102464    0.24808784443929    3.38328909528242
H        13.99671480263600   -0.17327806872727    2.45018221789356
H        15.12259893901679   -0.42756955170286    3.79421259485363
H        14.85536642369113    1.19769178769493    3.14797921843455
H        11.15430875837432   -1.36018255500036    3.08196989158934
H        10.41267656034155   -0.46282917898107    4.12205479061010

