49
CSD_code = ASEXOL | q = 0 | S = 0 | Stoichiometry = C18H25IN2O2Pt | MND = 4
Pt       -3.18557649931160    6.80513158511416   -1.13015641166425
I        -1.22577011470454    7.12679886670785    0.58696928057697
C        -4.71025159022316    6.51741117603913   -2.51708187495159
C        -3.70107733012376    5.94610171720056   -3.39038604962106
O        -3.53265671620886    4.59909053692649   -3.17961217274411
O        -3.02295946631859    6.55815121725872   -4.20742371370361
C        -2.53881509510391    3.95550309800789   -3.96794828364101
C        -3.07423180927121    3.56936846798219   -5.33955386395926
N        -3.76640769554571    5.07973617840538   -0.15290112896007
C        -4.67463266536149    5.28092453131163    0.99303292691364
C        -4.88207514163668    3.98793580913289    1.73841907403087
C        -5.97399370459198    3.17534624026183    1.46496988026291
C        -6.12619374717173    1.96550779025940    2.11956122798903
C        -5.18390412389880    1.55621847195353    3.04764326537424
C        -4.08953710814747    2.35964681541254    3.32169550245944
C        -3.93792832405952    3.56949256264505    2.66863896876827
N        -2.57361106908873    8.46875542667074   -2.17805740145098
C        -3.16112017122091    9.76037034527412   -1.78167759307451
C        -2.51984573631877   10.89137264199354   -2.54387410889157
C        -1.35202554705454   11.47521222772886   -2.06898147951415
C        -0.73064441323490   12.47988568370623   -2.78893962054598
C        -1.26898109008930   12.90533931316781   -3.99173272675325
C        -2.42886499948598   12.32282493789878   -4.47385057234636
C        -3.05019294370232   11.31757749777558   -3.75420130670970
H        -5.14110804219654    7.42968414389306   -2.92238718462231
H        -5.47783979994027    5.80683442718329   -2.22163759286559
H        -1.67963482095466    4.62643089322920   -4.07704123090490
H        -2.24572469157076    3.07016231289886   -3.39714142171485
H        -3.34288099758637    4.46551368996022   -5.89365563395127
H        -3.95499836105522    2.93881396366885   -5.23767957276611
H        -2.31013422079210    3.02890775432340   -5.89117246776645
H        -4.18396417897302    4.42244503933661   -0.81825105807454
H        -2.90425510012406    4.64745362613329    0.19811205738875
H        -4.22173899612934    6.02685673462142    1.65515279243162
H        -5.62547852157561    5.67187321041379    0.62045684764173
H        -6.71229282551549    3.49440513662619    0.74262112712475
H        -6.98107913018146    1.34187268430439    1.90439129623861
H        -5.30331215144987    0.61248159974699    3.55823027674316
H        -3.35365873556933    2.04440128703156    4.04594190475118
H        -3.08656106598011    4.19860853939524    2.88698056475666
H        -2.75008196865946    8.27685492827869   -3.17607393139563
H        -1.55555977179005    8.53496977855422   -2.06777437714421
H        -2.99752720628941    9.89179561751217   -0.70597903978008
H        -4.23739402563774    9.72972253461767   -1.97309546606923
H        -0.93206366763307   11.14507942382586   -1.12935319967694
H         0.17444611807496   12.93082513539007   -2.41057203728993
H        -0.78494999218897   13.69034882355818   -4.55321382497760
H        -2.85006386959349   12.65104109002839   -5.41240489646809
H        -3.95484687481666   10.86311448663756   -4.13250574945677

