60
CSD_code = ATODIY | q = 0 | S = 0 | Stoichiometry = C23H32Cl2N2Pd | MND = 4
C         2.81872982644832    5.48277701495830   15.56281928635340
H         2.83995986810785    5.46996416789087   14.48131004470406
C         2.05595715884247    6.40149292196742   16.27214244824213
H         1.46926650586266    7.12185458377233   15.72395591915065
C         2.03112775176763    6.41316273228803   17.66979162209612
H         1.43103337331267    7.13468130047064   18.20317793126292
C         2.80205490675739    5.46783771575910   18.31773778606676
C         3.52905471866688    4.59523312030318   17.50612695896146
C         4.26999502261033    3.68520038335942   18.32207359064849
C         4.02926655504671    3.96034819647488   19.66928578168919
C         4.68103406552426    3.15997106938454   20.58708123947983
H         4.56471846127598    3.28848237557748   21.65252380354847
C         5.51280137253619    2.15877200074867   20.07718770564567
H         6.04248769277514    1.51015338295610   20.75715430649535
C         5.67861981531418    1.97246397372743   18.71091528685420
H         6.32052035323104    1.19822899048740   18.31238646806789
C         3.06228287909227    5.12836763115234   19.77658556990523
C         1.76262739434723    4.70901354811351   20.48811912066802
H         1.09365485254084    5.57131027235589   20.52498714079170
H         2.00317147031188    4.43001996735209   21.51603385156676
C         1.04630347987929    3.54625395859477   19.80371129275947
H         0.80418801191042    3.81876938611897   18.77364498533533
H         1.70581315964303    2.67586025308444   19.76776529653316
C        -0.23918119644528    3.17538348674936   20.53953274906205
H        -0.88946654294670    4.05198395447585   20.59321890813142
H         0.00186778929343    2.88041465888688   21.56365560280400
C        -0.98631021384193    2.03755605565195   19.84858938403701
H        -1.22713605665782    2.33335250978256   18.82478329954361
H        -0.33868637479784    1.15948472651363   19.79378643316863
C        -2.27391002818143    1.67042074184919   20.58265521453100
H        -2.03162658997350    1.35936451270000   21.60154922065168
H        -2.91405340035080    2.55327769654431   20.65029601944957
C        -3.02914602145943    0.55125205645155   19.87673817196325
H        -3.94096073873068    0.30601749628910   20.41609616796420
H        -2.41474291902116   -0.34424349254940   19.81476913536384
H        -3.29821744369521    0.85116839641369   18.86630903513381
C         3.70244220905461    6.31571484431371   20.51844399945939
H         2.98353085361364    7.13725499601262   20.54395469834078
H         3.90147692595182    6.01549234535236   21.54926049677927
C         4.99978584160678    6.80254849141901   19.87547857649217
H         5.72921274787260    5.98931945527471   19.85543430491061
H         4.80931785681982    7.09976517367802   18.84142558234623
C         5.58622647184160    7.98742061642037   20.63934083168910
H         5.77904961744442    7.69113699365364   21.67323017634858
H         4.85617485463375    8.80018751187480   20.66001741728154
C         6.88209934312126    8.49170652241057   20.00980316042355
H         7.61456011342264    7.68145145095100   19.99113988662779
H         6.69073092427330    8.78629829948053   18.97537813647946
C         7.46288845999215    9.67974060822572   20.77311588838906
H         7.65679040865058    9.38367942687235   21.80667730248219
H         6.72840937173529   10.48825151832875   20.79350688936968
C         8.75355134950942   10.18451763665573   20.14051569447694
H         9.14754756325215   11.03048665532748   20.69856569712693
H         8.57722922920890   10.50158692746143   19.11508273877303
H         9.50610850872711    9.39925152264848   20.13027193837296
Cl        4.59695087487503    3.30349221902850   13.57133296180310
Cl        6.24167363864411    1.28422399701244   15.38343769201861
N         3.56738352711039    4.56480022956760   16.17756783493056
N         5.05427591116896    2.73923270715369   17.81461123409234
Pd        4.86948443848460    2.97108810421463   15.73091008234879

