48
CSD_code = AVIVOS | q = 0 | S = 0 | Stoichiometry = C23H20Cl2NPPt | MND = 4
Pt        1.66824245032835    4.35069868037755    3.27251836174199
Cl        2.89483882390208    5.46554886577516    1.66393486164247
Cl        0.42029224909358    3.29014910587424    4.92650257205552
N         2.19427143586524    5.74455202289585    4.59792653486032
C         1.26908027563586    6.46599688924893    5.22741908627844
H         0.23541169024325    6.24743338493153    4.98736369928248
C         1.59663553768996    7.43859195457661    6.15470564991993
H         0.81620964626813    8.00320986923281    6.63948897749727
C         2.93265758842444    7.66667916859488    6.44601821011865
H         3.22057744283059    8.41673876959969    7.16685244377873
C         3.89002151323935    6.90894652108046    5.78938174264941
H         4.94147564904565    7.05022153261312    5.98267101057481
C         3.47971713513333    5.96078071330388    4.86975940157487
H         4.19886709065415    5.36257434785754    4.32288228259952
P         1.02922726729486    2.73296356590915    1.82788927116420
C         1.28734965736796    2.97795889102749    0.04587560523331
C         0.25279733707307    3.25699092966976   -0.83772909756481
H        -0.76685570468865    3.30263404869721   -0.48102389052461
C         0.53155876360513    3.47550828644415   -2.17613523180628
H        -0.27454894124127    3.69128197327779   -2.86235387459038
C         1.83706937143068    3.42465203057624   -2.63372266681725
H         2.04996621816793    3.60206118781579   -3.67765613764454
C         2.87211006368033    3.15344093010391   -1.75192582590154
H         3.89159147929760    3.12260009853472   -2.10674323396443
C         2.60023396406818    2.93240636416401   -0.41638285599462
H         3.40024203760117    2.73354656956690    0.28390696483180
C        -0.75701448113304    2.45297851117613    1.97584431580405
C        -1.52590537211476    3.60861651693480    2.09950269619606
H        -1.02168452142112    4.57234344556345    2.10315077218625
C        -2.89742943982883    3.52032953635548    2.23150839238275
H        -3.49297037822503    4.41609144297682    2.32982471894068
C        -3.50676480542599    2.27458457394926    2.25004777385948
H        -4.57858982135299    2.20102214482766    2.36124989643268
C        -2.74334702195881    1.12475847366386    2.14150515676759
H        -3.22032736704927    0.15592525817764    2.17088841562071
C        -1.36758654775987    1.20796191023719    2.00449850653921
H        -0.77209426351270    0.30898583897716    1.93748643498240
C         1.83986421649076    1.13579908794566    2.10958511209055
C         2.60033639974819    0.97419386574054    3.26203334824589
H         2.68284040569069    1.80341683206014    3.95776920543615
C         3.23445733469389   -0.22996648434480    3.51036285868316
H         3.82365216825189   -0.35580835811494    4.40656439913600
C         3.11340122361982   -1.27325638494855    2.60716146889377
H         3.60667592437906   -2.21452300687770    2.80036238096469
C         2.36675371275840   -1.11105772408335    1.45005351516624
H         2.28183863725953   -1.92411823376905    0.74373966874533
C         1.73300956874948    0.09108511888372    1.19528299584292
H         1.16404438612027    0.22907093291262    0.28535410608977

