31
CSD_code = AVUJUW | q = 0 | S = 0 | Stoichiometry = C12H12Cl2N2O2Zn | MND = 4
Zn       -0.17128195580214    9.24886267457380    9.43827180591026
Cl       -2.27549665030732    8.93768178007841   10.04497948883926
Cl        0.68502487693136   10.08361937668701    7.58843222141627
N         1.14842747192802    7.77759972664236   10.20968110340370
N         0.71212883018920   10.32936213081861   11.10618596916624
O        -0.54268927444919    7.02062246740005    8.24390870617934
O         0.71235480935755   13.86664693508910   10.63944418317415
C        -1.31040039227015    6.38485405346925    7.36967905088110
H        -1.95751255287671    6.97963826187073    6.75409227647211
C        -1.10808878104077    5.03139460873581    7.43950962323009
H        -1.59099503992435    4.27720873024341    6.85315019735086
C        -0.13918565442946    4.83759454847902    8.43776248200364
H         0.26993805816330    3.90630441008741    8.77355793250305
C         0.18028264857678    6.09569086206834    8.91074671533150
C         1.08309979297659    6.54164845194401    9.92033494705917
H         1.70307866489849    5.78627381476287   10.41048759490591
C         2.05489614223524    8.30264987222763   11.17904000573301
H         2.88344645969220    8.76873434651616   10.63291383752449
H         2.45534410621321    7.52608269093253   11.84467966775690
C         1.33844696091720    9.39036592474205   11.99172971435369
H         0.54113366204318    8.91717186639838   12.57507757205110
H         2.04914889488248    9.87393665832285   12.67586203078588
C         0.90835711311298   11.57768657910005   11.26088208889080
H         1.58788386312841   11.95185174318843   12.03556475732778
C         0.27723856568443   12.58783049002412   10.48057026968694
C        -0.76172480201161   12.56564637539935    9.57049632537730
H        -1.32865639489650   11.70916576140821    9.26421481455797
C        -0.94856280221292   13.89463052838741    9.15644697797784
H        -1.66835353653546   14.25448612248364    8.45092257753343
C        -0.02120189564877   14.63549868489537    9.83614385709347
H         0.19791881147527   15.68585952302430    9.82613120552371

