92
CSD_code = AWIZEL | q = 0 | S = 0 | Stoichiometry = C45H42ClNP2Pd | MND = 4
Pd        4.38650970246740    5.71260089455891   12.06300776790460
P         3.63503210504890    7.19357085494437   13.60069495592228
P         5.53413698860243    4.18093292128004   10.84937899303264
Cl        3.31496395436866    3.94652311633514   13.18264336634672
N         2.41216910246816    6.88923369952003   10.54953348253699
C         1.46045066751916    5.78921145541246   10.65156795878061
H         1.00764309674277    5.53829383484391    9.67852954276708
H         0.66380107324067    6.07555458798037   11.33768115405468
H         1.96204265302577    4.91078353576403   11.07072217539264
C         1.69704437508861    8.12762979861386   10.28627163113016
H         2.40768907665007    8.93166937626331   10.10025918694796
H         1.08804010114690    8.39027359398824   11.15106470095034
H         1.04099304437304    8.04116391352320    9.40507037507468
C         3.40561791383905    6.66866561916428    9.48927515911046
H         3.01769397596088    6.98322814673191    8.50464015929494
H         3.62720248655988    5.59027287850015    9.43287868160827
C         5.30502629497933    7.11752279867749   11.03443770834745
C         6.45516884701884    7.80732128161591   11.38595435122116
H         6.96080628332307    7.59443484075833   12.32365592691799
C         6.97750988426056    8.77758437345232   10.54283123647157
H         7.87404753916292    9.31148098127415   10.82672093632136
C         6.35337860440602    9.06124733004731    9.34149633532049
H         6.75948360306591    9.81634234156749    8.68369468367222
C         5.20153621413802    8.37985280256762    8.98400733739432
H         4.71107452919608    8.60320115193648    8.04511460293296
C         4.67622882896924    7.41017030945072    9.82487217448571
C         4.21664699635471    6.50031255789696   15.17999177796190
C         5.56699232312825    6.15289351204109   15.20213980534470
H         6.16567904063440    6.30903787123623   14.30378847047305
C         6.13154844206330    5.62815907344102   16.34797040270529
H         7.18152929922399    5.37385994522994   16.36744950914147
C         5.34638886631066    5.42657914307224   17.47327919425199
H         5.78244642200020    5.00486914253159   18.36720196588441
C         4.00314938631376    5.75987837045914   17.45017473255025
H         3.39176206642128    5.59716263159396   18.32596023823969
C         3.43537476103323    6.30376943354596   16.30979679722277
H         2.38725865445489    6.56683235626903   16.29695521591368
C         4.31011989238115    8.88794389953383   13.70164493992046
C         4.85685775306283    9.41335548199971   14.86701534502911
H         4.89189796462107    8.81673474237577   15.76756470376442
C         5.35758123762521   10.70381188992933   14.87885976541949
H         5.78278376859788   11.10339749918797   15.78821111727884
C         5.31658329835447   11.48119176309787   13.73386036352639
H         5.71415132232774   12.48543175891698   13.74707884696230
C         4.76508829306731   10.96660680155225   12.57157356165903
H         4.73031315143853   11.56721365393587   11.67430175704324
C         4.26635201427586    9.67837749707969   12.55669966838113
H         3.84203958478234    9.26529689519528   11.65500948316071
C         1.85709635387342    7.46776811912119   13.86691799654354
C         1.29285000527822    8.73767909846220   13.92593696638614
H         1.91536639302067    9.61459156623942   13.81918138339646
C        -0.07015649636704    8.88082308433071   14.12166684098555
H        -0.50268690901503    9.87017392451998   14.16664106181194
C        -0.87788350859973    7.76436137122602   14.26032466720918
H        -1.94074056268662    7.88243679093332   14.41407149383149
C        -0.31961359418247    6.49716435565162   14.19932541526845
H        -0.94627264208117    5.62348931194801   14.30481086859143
C         1.04012244300034    6.34609546661844   13.99927786295113
H         1.48127159332333    5.35969404817159   13.93843275675207
C         6.17751660749601    4.56721204788130    9.18676542883981
C         7.19016673026932    5.51667336670810    9.07021172018389
H         7.61897034812129    5.94896267269874    9.96325560355764
C         7.64330774652667    5.90702600514418    7.82554324443679
H         8.42685627193119    6.64624282547488    7.74897444370405
C         7.08901485605180    5.35745886576963    6.68066060322258
H         7.43960568251044    5.66602517879800    5.70685719592244
C         6.08521621916570    4.41039020075755    6.78829982111732
H         5.65356003851919    3.97531679684488    5.89848035259287
C         5.62729851534393    4.01815877664971    8.03391704917117
H         4.84369069720276    3.27649339635977    8.10887580290939
C         4.79695276329909    2.52810686188542   10.60666440885321
C         5.48629966080829    1.35437666306449   10.88672333254438
H         6.49729837463305    1.39461822641232   11.26577161581194
C         4.87458749491612    0.12855075878313   10.69147718692897
H         5.41567382126979   -0.77907809543629   10.91690732803201
C         3.57532968339446    0.06113745061026   10.21892171919913
H         3.09982906454242   -0.89814909079521   10.07646962960369
C         2.88237637237533    1.22749412614657    9.93953807691840
H         1.86486514105583    1.18180173838824    9.57933447395092
C         3.48982258141033    2.45284226651553   10.13378124096407
H         2.94190187906856    3.36389269398892    9.93136727653556
C         7.04067245054422    3.77769047363133   11.78934884920437
C         6.91699940149088    3.76821888302615   13.17658140821479
H         5.95851821849490    4.01328216347240   13.62863725106475
C         7.99477605453290    3.41426001295615   13.96789643274804
H         7.88833677638303    3.39024590492742   15.04234592734448
C         9.20511545282782    3.08151262738990   13.38185498438986
H        10.05004045461804    2.81096491843176   13.99838252874440
C         9.33097353834141    3.08652655664789   12.00180746497354
H        10.27201210737969    2.81773640580869   11.54378543545982
C         8.25236482498363    3.42318043278712   11.20338999873128
H         8.35076161077077    3.40786839212586   10.12675260455586

