31
CSD_code = AXEROK | q = 0 | S = 0 | Stoichiometry = C15H11ClN3Rh | MND = 4
Rh        1.24479931240546    1.77004365069239    0.96145151152055
Cl        2.57522893157325    2.95181714993587   -0.33069724082842
N         2.00310892136374   -0.01605554630039    0.56286425621146
C         1.37034915553209   -1.01680194401887    1.24378676556172
C         1.75848040396592   -2.34764937448310    1.09588619799928
H         1.24298866525272   -3.11829080368474    1.64662910373063
C         2.79878254366546   -2.66610183602332    0.24658397872806
H         3.10978872622096   -3.69199381262621    0.12039083299725
C         3.43501804750457   -1.63860440960150   -0.44217875567279
H         4.25145046104272   -1.84513610052107   -1.11517621605510
C         3.00684103093315   -0.33911298387627   -0.25360669450654
H         3.47902722714988    0.48550369724383   -0.77214179586760
N         0.13670744341303    0.78554025909695    2.04290576024329
C         0.29035391434592   -0.56061188158406    2.10257660881028
C        -0.53716291002344   -1.32277090037286    2.91634512791679
H        -0.42173304117241   -2.39349530099804    2.96835992552937
C        -1.52033369206886   -0.68852874732375    3.66501160974543
H        -2.17082314930079   -1.26722766756934    4.30198011173600
C        -1.66551033025261    0.69104523624101    3.59373808987860
H        -2.42786234209355    1.18693464528771    4.17283850752188
C        -0.81846749027501    1.41846775408210    2.76840260744298
N         0.16137101731004    3.27057146106666    1.66826207989754
C        -0.79854945668628    2.85449086777101    2.54635192059868
C        -1.66436403691697    3.76321568789675    3.15309879038938
H        -2.41248904878072    3.40808772527421    3.84392549288605
C        -1.55567601340543    5.10844905087663    2.86408609136688
H        -2.21890678842549    5.82428126472901    3.32543117959075
C        -0.57547916611172    5.52030038274982    1.96720127612636
H        -0.45836576690920    6.56157944228790    1.71388179234287
C         0.25396980604304    4.57342849111126    1.39892699513943
H         1.02835762470067    4.85752454264053    0.69788408901933

