28
CSD_code = AXOBUK | q = 0 | S = 0 | Stoichiometry = C9H12Cl2N4Pd | MND = 4
Pd        3.46471065890751    4.31649116919205    7.26135353251718
Cl        1.99642790569924    4.47947917160975    8.96048118311047
Cl        1.77148843286293    4.41480826272789    5.78058706976208
N         5.04679145629015    4.62276257355063    4.60513226716801
N         5.76080335101162    3.10035829556054    5.94166920452107
N         5.93032250604229    3.15095801853678    8.28904360028729
N         5.40773990851120    4.72837485275461    9.65017069411839
C         4.80035048992320    4.04759002400174    5.78946372114108
C         6.14250460961803    4.04839145338328    4.01594444414918
C         6.59978313514812    3.09136034591471    4.85629054491315
C         4.29375613614371    5.70953875449119    4.03795993950342
C         5.85284677973540    2.29251823678561    7.13277698936371
C         4.99716990066741    4.10491793957543    8.53803320156615
C         6.57941489956178    4.17796572852015   10.09916067082154
C         6.91628707885876    3.18628571131056    9.24220588425050
C         4.73737197904037    5.83772771895244   10.27464365416526
H         6.50522328666729    4.35838718452970    3.05748644827267
H         7.42303968802944    2.41312610555044    4.76639950212458
H         4.08864245934710    5.51044521467504    2.98693379913053
H         4.85138509911998    6.64430576547448    4.12624435366758
H         3.34640011541349    5.78643226615520    4.58172490104543
H         4.94561431627720    1.66573719938945    7.21190107791413
H         6.74135282955129    1.65688456248649    7.08220892563761
H         7.07419089723753    4.52699342146592   10.98210083243750
H         7.74739499333980    2.51171275953106    9.24083262348530
H         5.26293115049414    6.77012448938954   10.05716440866762
H         4.69918903727843    5.68881694226162   11.35305479778256
H         3.71676689922391    5.88340583222308    9.88003172847629

