84
CSD_code = AYEMAS | q = 1 | S = 0 | Stoichiometry = C43H35ClNOP2Pd(1+) | MND = 4
Pd        2.08923061398095    1.36705885327171    3.15424402405956
Cl        1.80059954937438    1.09229838482615    5.36719568235660
P         2.89933875925936   -0.76934831186241    3.09018655482886
P         1.28919902260923    3.45884819842846    3.51926591296093
O         1.35873588402707    1.06098996531842    0.46334705635254
N         3.34582501245540    1.93287128993467    0.47976759639980
H         4.19983181119710    2.34411591537840    0.82784268896209
C         2.31188157775374    1.54353215965860    1.23774551692488
C         1.77907584834034    1.12117542816786   -0.83880067808513
C         3.06120742780232    1.67952922401054   -0.85274294988230
C         3.76162857802612    1.85204164965059   -2.03230536816342
H         4.75073010125565    2.27915083091724   -2.04651995165755
C         3.12628577402544    1.44404821412841   -3.19198125415554
H         3.63526316786015    1.55659028882550   -4.13606511742642
C         1.84721429297269    0.89200963830737   -3.17485622927583
H         1.39459052678912    0.59053775641645   -4.10595484119003
C         1.14144042213445    0.71856684814321   -1.99632531959173
H         0.15314711132131    0.29142399339897   -1.97510831979593
C         3.53265429235917   -1.24986409803754    1.45114069363297
C         4.83700686148999   -0.96968205641474    1.05637189579341
H         5.54318128088995   -0.57512638124932    1.77514416621298
C         5.23115901401172   -1.21019616265184   -0.24854863365160
H         6.24697416393439   -1.00098407234473   -0.54858001817322
C         4.32816116266433   -1.71973514125996   -1.16727055643769
H         4.63817138618615   -1.90355137739592   -2.18418747653713
C         3.02688124554826   -1.99864955171118   -0.77908851325900
H         2.32418013783198   -2.40043482209780   -1.49309579251940
C         2.62747328481251   -1.76006398292988    0.52235102378045
H         1.61084442961262   -1.96820869296215    0.83169789500785
C         4.37126913227984   -0.67596868710222    4.14886800008765
C         5.00573345448962    0.56680797550133    4.20412266710327
H         4.59953699887864    1.40689976451386    3.61907951172506
C         6.12034493481013    0.74052745037195    5.00085637713841
H         6.61010557623370    1.70183751652840    5.04932210601593
C         6.60228946779111   -0.32207075635861    5.75139305468115
H         7.46672635185076   -0.18458817244560    6.38250828489332
C         5.96876807636445   -1.55234171805270    5.70515178892978
H         6.33940319286942   -2.37274438451953    6.30047955061605
C         4.85219394605624   -1.73522520594773    4.90627314558936
H         4.34750850085766   -2.69014449160906    4.88664730776071
C         1.91313206956150   -2.19217422477229    3.60586278110877
C         0.69432468121650   -1.98334082220179    4.24269286373485
H         0.35631793780384   -0.97029275095984    4.43139086016593
C        -0.06226611775202   -3.06885512403421    4.64754768999902
H        -1.00581803528124   -2.91040046884221    5.14714636295367
C         0.39268412002478   -4.35637545687641    4.41413202636077
H        -0.19642265544708   -5.20240646618442    4.73352146241025
C         1.60140849723145   -4.56477382562142    3.76610930478714
H         1.94900470170567   -5.56974959003934    3.57975294694230
C         2.36358125133107   -3.48765198871279    3.35516944954691
H         3.29816462014727   -3.64421878270295    2.83263022023993
C         1.92929542408438    4.21623923665079    5.02968604453500
C         3.31626349482922    4.15932543991055    5.16661375217986
H         3.90356466381508    3.68714529613076    4.37939618372237
C         3.92196139761942    4.67650704249596    6.29333581828599
H         4.99496540956319    4.63107305664011    6.40425953169734
C         3.14264575436081    5.24359621931698    7.29150672274354
H         3.61268151097012    5.64254252592703    8.17725070593148
C         1.76450824240166    5.28248465682480    7.16446955687707
H         1.16219014576685    5.70812360219372    7.95257469379126
C         1.14879254838216    4.76620683513030    6.03594961756946
H         0.07220402024314    4.77322050276491    5.95098404623451
C         1.50844129573922    4.71017146616493    2.21559708111873
C         0.91257413669485    4.44532431672817    0.98297983026089
H         0.30173221714525    3.55647765128806    0.86987097872404
C         1.08123801502105    5.31898296310128   -0.07285663932681
H         0.61447880502982    5.11293605066413   -1.02471215383676
C         1.84732255881410    6.46377992272332    0.09402844413114
H         1.97866543536633    7.14775513611219   -0.73017033612081
C         2.43618024953411    6.73305923891435    1.31803217369174
H         3.02409113213944    7.62880067715957    1.44909250119403
C         2.27303485060162    5.85855692362348    2.37980658055163
H         2.73108653801279    6.07097985006615    3.33568712918704
C        -0.50972111958805    3.28066379539958    3.59691800873193
C        -1.35052785588162    4.37862342823077    3.76202328198315
H        -0.92953872769453    5.37126389714742    3.84993400877847
C        -2.72019045755564    4.19067933159090    3.79571342820342
H        -3.37529239994399    5.03762053966808    3.93262465586774
C        -3.25230923593927    2.91863036054157    3.64964415204883
H        -4.32187852297349    2.77802167857268    3.68106247509704
C        -2.41850237177663    1.82904121499912    3.45207213783938
H        -2.83990669922313    0.84347999285725    3.32218320747462
C        -1.04679426443251    2.00595667453504    3.42121132261954
H        -0.37835963487437    1.14683669805924    3.25710360805782

