58
CSD_code = AZEVUX | q = 0 | S = 0 | Stoichiometry = C24H29Cl2PPtS | MND = 4
Pt        6.73086427949685    9.66188285615931    9.98028275453866
Cl        7.60108169981978    9.82414640632904    7.87643733745293
Cl        4.60581851385306    9.83871607368500    9.16059774668951
S         8.90285149873406    9.43101561130132   10.97875000501671
P         5.86849890268991    9.61149536629054   12.06469016578332
C         7.16560392805388    8.87022418933399   13.17034527427919
H         6.95114256639314    9.09666124690673   14.21876840117576
H         7.15029049835652    7.78459554170567   13.05044754936159
C         8.51522462212782    9.44827648363560   12.77999103385820
H         9.34055253548126    8.95301946467137   13.28962546095679
H         8.54696087196047   10.51321572669925   13.02197005380470
C         9.35861696564604    7.67826167257431   10.51829849537389
C        10.15810285553295    7.85283979335238    9.22900918583073
H         9.53858195217229    8.35489995860445    8.48195595248217
H        11.03063046106138    8.48142755253159    9.42139725059188
C        10.59841398913789    6.48009934682027    8.72320849592034
H        11.16870575136917    6.60651987596725    7.79814878585477
C        11.47605602570172    5.81255693240590    9.78123722038644
H        11.80565403055033    4.83238162022314    9.43100546228338
H        12.36587582111974    6.41888404621832    9.96451903939111
C        10.67680669181349    5.65418674412538   11.07323315559974
H        11.30329738217982    5.18196814195430   11.83858246562609
C         9.44937106019853    4.78333322957267   10.80665060860094
H         8.88158198417507    4.64173385593302   11.73026659048233
H         9.76569370805919    3.79852740113606   10.45786526686497
C         8.57326957181751    5.45318054807952    9.74753951807251
H         7.68748920128316    4.83714143719154    9.55995314159550
C         8.12580276664244    6.82503004203476   10.25845806339668
H         7.48662148127918    7.31021135100259    9.50741432499280
H         7.55147500892916    6.69363772138940   11.17921212016206
C        10.22770556981184    7.02943420718195   11.58476707457055
H         9.66860427495595    6.89236226046895   12.51406887625374
H        11.10014215553681    7.65322491213435   11.79315221930712
C         9.36348495927007    5.62352468804038    8.45202744305019
H         8.73927506469046    6.10885323935121    7.70027216142063
H         9.66113183669509    4.64635035261762    8.06652646108287
C         4.36152975443177    8.70928855933315   12.50424569020479
C         4.32840639183305    7.34276002452157   12.23497861673534
H         5.19586129230410    6.86267716005397   11.80245174737527
C         3.18465620622372    6.61115328023059   12.48779525721041
H         3.16336084581740    5.55221966903647   12.27654376220770
C         2.05981808078342    7.24117741902773   12.99685924195343
H         1.16318941363035    6.67086987232837   13.18949333468019
C         2.07871979760736    8.60478983167458   13.23722363211905
H         1.19531838277515    9.09919808763926   13.61324115413115
C         3.22216342011691    9.34294019399680   12.98589006412121
H         3.22664148945726   10.41029510912514   13.15282269119913
C         5.68557752600167   11.27889045020414   12.75292193624857
C         5.42459957009923   11.51998838900772   14.09933784355527
H         5.29027925942859   10.69256728714065   14.78370415771894
C         5.32476165096195   12.82101178691115   14.55657515914696
H         5.11998482874765   13.00944610413506   15.60043513218527
C         5.48390125771483   13.88297442114433   13.67873979925400
H         5.40302224982479   14.89645785556819   14.04291556312263
C         5.74277622846422   13.64672631582112   12.33855995532834
H         5.86424849522699   14.47360896168695   11.65531100515067
C         5.84421337802334   12.34696758273554   11.87567478985688
H         6.03988999391559   12.14107174108787   10.82680430437980

