32
CSD_code = BAFDUH | q = 0 | S = 0 | Stoichiometry = C6H19Cl3N3Ta | MND = 6
Ta        6.22550857159439    1.89741731474076    2.22966351520524
Cl        6.76022658357781    0.02296041877742    0.91196538622072
Cl        6.81186403393305    3.73020707689055    3.52317570000632
Cl        6.29212662893771    0.57852618939324    4.11078792771043
N         8.87957161744912    1.54361329956483    2.46697420710742
C         9.49334053749745    1.94016562665875    3.73262347443140
C         9.66443232829097    2.00429642608812    1.32472053250407
N         4.24518407149142    1.81046639190664    2.10556316129366
C         3.49384917439652    0.63033775474679    2.46613307495577
C         3.37878411003156    2.95145702369315    1.92291938201144
N         6.32368961057248    3.05268482779658    0.64255804813696
C         7.04312778295593    4.28562426462571    0.42123000255474
C         5.75182557961476    2.61503418248976   -0.61352262402455
H         8.86339445565681    0.52250101036289    2.43791187669567
H         8.89709396162399    1.54657910903811    4.55405877945551
H        10.52088329048511    1.56927336970820    3.82294326961230
H         9.50167337962258    3.02740376635309    3.80047870128308
H        10.70022454708189    1.64629736312204    1.36809513815534
H         9.20179695426594    1.64160062801991    0.40788406777644
H         9.67284141506723    3.09401154714416    1.31793947331299
H         3.12405698534897    0.69923750340236    3.49796016788398
H         2.63357612355136    0.49786782567312    1.80111524696562
H         4.13312629740577   -0.24896286232039    2.38284846500272
H         3.97093514011842    3.79612038456219    1.57265929526263
H         2.58860269323480    2.73710944659026    1.19414092470759
H         2.90135163201414    3.22930123486667    2.87125263856526
H         7.45115477430300    4.63748086373640    1.36570155753676
H         7.85936200984705    4.13701152648368   -0.29615246200442
H         6.38004063062204    5.05945924126698    0.01641565135033
H         5.27735442016466    3.44654624016507   -1.14418176784807
H         6.53395065267346    2.19652078691364   -1.25842372732142
H         5.01165000656876    1.83935021753326   -0.43203908450535

