69
CSD_code = BAGHEX | q = 0 | S = 0 | Stoichiometry = C28H30Cl2N2O4P2Pt | MND = 4
Pt        2.08097732643820   -7.64876889391739   15.28756328997656
Cl        3.19180130097893   -9.12829889642349   16.61213149731311
Cl        1.68903041851292   -9.31676450457248   13.75777995267547
P         0.88824776028000   -6.21140859946458   13.99106388813091
N         0.58377942783423   -4.89165378342142   14.99730128384060
C        -0.39708425912852   -3.85736186695030   14.71419165824142
H        -0.94623586408719   -4.16779553029810   13.82368506095956
H         0.10792947748408   -2.90884484550947   14.49792299418133
C        -1.34178422180234   -3.68568884874511   15.89692180524286
H        -2.03561792410009   -2.87093939020989   15.70818506506333
H        -0.76808283376660   -3.46714193460075   16.79399342628142
H        -1.90574078349667   -4.59957947617002   16.06329461467026
P         2.12244267934813   -5.87355969603745   16.74976866198841
N         1.59584491304326   -4.50050817421276   15.89813223854382
C         2.66837953607977   -3.69426727283599   15.29174558407127
H         3.61232207542745   -4.25180210970123   15.28845879826495
H         2.40281958984908   -3.48716213394236   14.25101426825378
C         2.83872493163124   -2.38685780403305   16.05199882362885
H         3.62365622344934   -1.79178791036485   15.59206865415513
H         3.10747656729377   -2.59384333841031   17.08254276448818
H         1.91179307664277   -1.81941340896183   16.04465029746271
O         1.46069881572279   -5.63033354481635   12.58184513536979
C         2.79424126435843   -5.37391080861912   12.32453055385503
C         3.09064499197752   -4.23630557420603   11.58454531905049
H         2.28370783411687   -3.60405540421882   11.24616466143696
C         4.40837190436574   -3.93749742122627   11.28794502715052
H         4.63623892143411   -3.05519524667106   10.70921660938052
C         5.42753184334455   -4.76225799731509   11.73363435516125
H         6.45483073945549   -4.52406308864542   11.50458914266639
C         5.12443222622030   -5.89668975161110   12.46746675955736
H         5.91221885841402   -6.54895719173405   12.81094450402214
C         3.80923170681843   -6.21032859797319   12.76456951745338
H         3.57334826588290   -7.11654183252644   13.31747751189684
O        -0.60652694378782   -6.46340531861358   13.54300151787174
C        -1.09100040758344   -7.62407219903266   12.94299937033584
C        -0.47322798288565   -8.18716844397693   11.84056995678815
H         0.43046428572839   -7.74508844427135   11.45199223569927
C        -1.01844022694025   -9.32175544484840   11.26606349284570
H        -0.53066440242290   -9.77143201566911   10.41530260167086
C        -2.17201438877676   -9.88378417293174   11.78553688709447
H        -2.58806120922351  -10.77376393315144   11.33854785943910
C        -2.78889656040647   -9.30685454130126   12.88223934682153
H        -3.68795572621087   -9.74196680960211   13.29232305685529
C        -2.25041471080748   -8.17387755390512   13.46701289995005
H        -2.71622520501658   -7.71318148600789   14.32502576312229
O         0.92349283335331   -6.08888973206831   17.78989171645692
C         0.33550331445585   -7.35164627763991   17.87079088105901
C        -0.44024693036309   -7.82261573906295   16.81860822289031
H        -0.68196774886557   -7.15660098439842   16.00049759390002
C        -0.96004214910251   -9.10715692829324   16.87593459145941
H        -1.54389284945157   -9.48169864845772   16.04881364422441
C        -0.70884858204874   -9.90703119221622   17.97774745429501
H        -1.09257238356938  -10.91511086359461   18.00934702695066
C         0.03873048344008   -9.41700208985940   19.03509703493528
H         0.23449427844132  -10.03908309599427   19.89479416424417
C         0.57026942031970   -8.13954136356704   18.98514699235127
H         1.18418844130149   -7.75507447179958   19.78522587572083
O         3.20261845849419   -5.09184638478646   17.62987004564505
C         3.78848438979958   -5.55072356653960   18.79757244270003
C         3.86539523558568   -6.89492445608920   19.11705981204054
H         3.48642128654451   -7.63714413325103   18.42562775806758
C         4.46455844062588   -7.27547645414341   20.30640318265946
H         4.52513750024962   -8.32477831290806   20.55087176327040
C         4.98241805422846   -6.32429391030171   21.16833996709210
H         5.44709710886515   -6.62664227390998   22.09447603600606
C         4.90716290756535   -4.98163942943315   20.83637907503002
H         5.31276050178057   -4.23388194266553   21.50108917156117
C         4.30902148511558   -4.58855117880401   19.65268723378437
H         4.23860319173029   -3.54611132865884   19.38336960074676

