69
CSD_code = BAGTAH | q = 0 | S = 0 | Stoichiometry = C30H26Br2HgN10 | MND = 4
Hg        7.39635686898316    8.16543016446201    3.69127958384812
Br        5.34739330331661    9.20514473569773    2.86782171907444
N         6.76441662042159    6.27109785987472    5.18438258321429
N         5.71379169104666    4.58736350505913    6.17785418291944
N         5.03344310464365    2.31867663848306    6.10734913766489
N         5.03791454807783    1.29798938397432    6.98616408858555
N         5.29620556927943    0.20975509196624    6.40460505966724
C         9.04946060080936    5.76924364995530    6.13595988567278
H         9.57086056461148    6.58778217269118    5.66849420450032
C         9.70436959130421    4.89510272448439    6.97931492822943
H        10.76019920139758    5.02915208764825    7.15787539559549
C         9.03838997139268    3.84955186668135    7.62039784462877
H         9.59155181243846    3.19873826159398    8.28047897420129
C         7.68714413199911    3.63121243353263    7.43146983014240
H         7.16975933500958    2.82378336000390    7.92705344191194
C         7.03145479042059    4.50317237118596    6.57751872216264
C         7.68846354743576    5.56959761280976    5.93651720338706
C         5.61299534824792    5.66604704511180    5.34876659892596
C         4.31759572425320    6.08730506270317    4.76692399549973
H         4.44332974283777    7.00567874975763    4.20215060844484
H         3.59159143758435    6.27353366326690    5.55797521827007
H         3.91845192826022    5.32354327449008    4.09941330367645
C         4.69313438934968    3.64536384815294    6.53705819097081
H         4.58343207142764    3.59135773160284    7.62817065702442
H         3.74308561149986    3.95817910836318    6.08883683584940
C         5.33194231175171    1.84019496563057    4.86303276058130
C         5.48884568985611    0.44712468472209    5.07523854165460
C         5.77672842467633   -0.40828867925695    4.01362885680012
H         5.87701918291098   -1.46821685450881    4.17713246035896
C         5.92277445450532    0.16392480530753    2.77268967583644
H         6.14698061340511   -0.45768035269127    1.91944963761020
C         5.80132511878639    1.54627775867309    2.57874194194819
H         5.93922046152775    1.94714612594585    1.58646500187810
C         5.50485913065627    2.41096501608567    3.60862603908424
H         5.41894825601002    3.47349181087431    3.43848489186819
Br        9.44617380920664    9.20410433636915    4.51390086776270
N         8.02639239099296    6.27066767492846    2.19797973756284
N         9.07662611738306    4.58710791689776    1.20379895501582
N         9.75722862745638    2.31847820080231    1.27413361283452
N         9.75290972085524    1.29763001210466    0.39550825771546
N         9.49508067626087    0.20942133998766    0.97731974330505
C         5.74102055495560    5.76913570713326    1.24693976574718
H         5.21978872527121    6.58760059151640    1.71471930130017
C         5.08583391187724    4.89517360720897    0.40360357575493
H         4.02995155367692    5.02927243332173    0.22538036336940
C         5.75157902607813    3.84973633932054   -0.23790616386676
H         5.19819469734410    3.19906264731472   -0.89794192738970
C         7.10287658480549    3.63132507636317   -0.04943289295950
H         7.62010604569072    2.82398463849262   -0.54532616607028
C         7.75883996521984    4.50308118686243    0.80451469065335
C         7.10207389439268    5.56940212392748    1.44594622964799
C         9.17771726272854    5.66557469881448    2.03312762825043
C        10.47328235771577    6.08655127991284    2.61480348267434
H        10.34775546673237    7.00476559336353    3.17988039018190
H        11.19913190071499    6.27296711531379    1.82365577470324
H        10.87249833749670    5.32257051493637    3.28202113810782
C        10.09716739673753    3.64517384567497    0.84413845972608
H        10.20633719746219    3.59110271291474   -0.24702270984174
H        11.04740903186296    3.95812324040626    1.29185907127068
C         9.45916918674542    1.84012845930393    2.51860720655763
C         9.30268319309085    0.44696754735714    2.30668980496218
C         9.01532029245646   -0.40834634025512    3.36852160453170
H         8.91535340451177   -1.46833698854393    3.20522036586855
C         8.86932129974380    0.16404265747218    4.60938475958666
H         8.64549012609720   -0.45748570070549    5.46277906290597
C         8.99032695441526    1.54647470219717    4.80305450584452
H         8.85246910798621    1.94748352744669    5.79528236792090
C         9.28629917735730    2.41106598895978    3.77294850299993
H         9.37185685454685    3.47365162854874    3.94288863168881

