68
CSD_code = BAJHOL | q = 0 | S = 0 | Stoichiometry = C31H31ClN3NiP | MND = 4
Ni        5.37203179166899    3.45560868081370    2.84807272468639
Cl        5.54317869728673    1.57786180268678    3.73847683797118
P         4.79446315415634    4.31975536526561    4.66792382618409
N         6.05186154048542    3.11703536481064    1.02715016498203
N         6.34494572722257    3.90634516367404   -1.03815422853586
N         4.42637459356148    5.93898912344591    4.29651558217403
H         4.37195410772837    6.66614815967255    4.99922314924539
C         5.21959913349223    5.19674353515370    2.20768621608378
C         4.84677018419816    6.28303530450793    3.00569171906306
C         4.88466018239756    7.57023062241278    2.49307047426441
H         4.60722375478726    8.41400995126516    3.10981672109707
C         5.30523608386446    7.77011652346490    1.18297633104425
H         5.35356618168883    8.77708299713728    0.79514900513075
C         5.66779566308302    6.71202322900485    0.37151929872983
H         6.00792206148817    6.89437140489355   -0.63657926777101
C         5.60539163636473    5.41398349702705    0.88154333230722
C         5.97818827152796    4.15630929456728    0.24315593020806
C         6.83198850952845    2.53434003752097   -1.11466184408025
H         7.91870074090326    2.52533868384991   -1.25371038708061
H         6.36865840527030    2.01317914096049   -1.95417897651471
C         6.43866585078970    1.94609616984831    0.25787487570639
H         7.29734906500237    1.46997170244210    0.74345993410616
C         5.28790260365398    0.91852857668767    0.22784373454367
H         5.08726367757791    0.66532669274396    1.27449594665117
C         4.01270074141014    1.51188199842474   -0.36605614343306
H         4.14811427677881    1.80751635199087   -1.40576080914270
H         3.70166767901568    2.38362991677462    0.20901466237105
H         3.21054023717894    0.77906460827010   -0.32385922118165
C         5.70890661090120   -0.35149408930927   -0.50352449249599
H         4.92315140648961   -1.09895830004948   -0.42811115738180
H         6.61415648256048   -0.76298827961259   -0.06330581670419
H         5.89377736529554   -0.16084887284315   -1.55937538260438
C         6.01391807565440    4.62525643688885   -2.18741373015882
C         4.81371021072279    5.32887498566410   -2.27563773644462
H         4.13047588111387    5.32547271352734   -1.43993131086200
C         4.49961619439283    6.01978848118709   -3.42805455119150
H         3.56809173910873    6.56464521189614   -3.48120859638438
C         5.35222791473977    6.01396645660871   -4.52718623378742
C         6.53133650797357    5.28595997204021   -4.44112778068237
H         7.20480304361656    5.25874225857497   -5.28570334208227
C         6.86317666457603    4.59690974496004   -3.28987949953199
H         7.78853071318667    4.04334478553780   -3.24089675731398
C         4.98574311926619    6.75339041499945   -5.77738241477956
H         4.21714064866638    6.20683695721917   -6.32464215557637
H         5.84893996826491    6.87033498067864   -6.42777302986194
H         4.58763022410686    7.73782684926030   -5.53933320558332
C         6.22132993469485    4.44269220120229    5.79777275307728
C         6.08983262049692    4.86503604692494    7.11510429314725
H         5.10787146895560    5.06805016822067    7.52139372252860
C         7.21784072067186    5.00931373954974    7.90258398734438
H         7.11950744755648    5.33160430092077    8.92912555147960
C         8.47232177856718    4.73751099908624    7.37922452351908
H         9.34861188187308    4.84705358051584    8.00119163843703
C         8.60527089849138    4.32204069371136    6.06393103633874
H         9.58345137613235    4.10755533998606    5.65970091300026
C         7.48045971424570    4.17773726239718    5.27347162248569
H         7.55537407514630    3.83863821043286    4.24167711333764
C         3.45536469264283    3.81538445349582    5.77298426121720
C         2.25967916897062    4.51903527995413    5.84783706023034
H         2.11769853549295    5.40031496982584    5.23826734569937
C         1.25798447618997    4.08166775484901    6.69639165705054
H         0.33024537805236    4.63174750710412    6.76229743572221
C         1.44052114856848    2.93701046202662    7.45515567286288
H         0.65508689461298    2.59822208217581    8.11487320539615
C         2.62334602988492    2.21943929254482    7.36047643945691
H         2.75697319586164    1.31877898357526    7.94110098331355
C         3.63040029252776    2.65325937083496    6.51968273948805
H         4.55088094755700    2.09522269415829    6.41794364951083

