26
CSD_code = BAMBOG | q = 0 | S = 0 | Stoichiometry = C9H14Cl2Pd | MND = 6
Pd        0.84082551002485    2.05805476611575   -0.47371062505545
Cl       -1.32401084337536    1.60495045306471   -0.80280283760213
Cl        1.17627245155961    1.16318431529995   -2.49966905661680
C         0.23092960692458    3.33818182469838    1.23027269277773
C         0.54368663869175    2.08707169947786    1.69670593281712
C         1.81748650764000    1.64743026295920    2.38209431020207
C         3.10461586072362    2.06166908354058    1.64317804228596
C         2.96002873155295    1.91743185218088    0.14963731410750
C         2.88518569373680    2.96628258416333   -0.72715215400852
C         2.95596303546723    4.43121357678458   -0.36813956347343
C         1.59526943410940    5.06015056230789   -0.02859773794047
C         1.04289046115524    4.60341464245600    1.33367551102172
H        -0.81941996116521    3.52004054676472    0.99696569300077
H        -0.28924953783853    1.39215857436472    1.83015707723652
H         1.79532860377325    0.55688849027881    2.46071470898491
H         1.83342787778761    2.04681227200107    3.40138583793393
H         3.92001955625936    1.41799256827977    1.98225152312340
H         3.37025253287991    3.08756707600279    1.89642259079486
H         3.18643654639740    0.92437939968086   -0.24903431059189
H         3.05838506160956    2.75320875454899   -1.78097742475247
H         3.36837040291626    4.96637855443543   -1.22557477203977
H         3.63726500364678    4.58558165700031    0.47321123048225
H         0.86927027457366    4.80997956681279   -0.82312603544488
H         1.71617761075698    6.14480459464539   -0.01870500235253
H         0.37409885997761    5.38165077152256    1.71011197847414
H         1.85739408021469    4.49922155061260    2.05100507663584

