41
CSD_code = BARCAA | q = 0 | S = 0 | Stoichiometry = C14H23ClN2Pd | MND = 4
Pd       -0.42442932081877   12.16297668134935    4.97385097230608
Cl       -1.04557931307037   14.32317723018653    4.29605120709584
N         1.45478562746250   12.84812186221060    5.46575404260515
H         1.72118581595483   12.66439579254279    6.43402021478236
N        -2.29590404859458   11.37096328534806    4.61893362504168
C         2.53078549867114   12.69259287285620    4.49960242647536
C         2.08003936908003   14.03986259494364    4.90981046777991
H         2.69766398069472   14.62625644691476    5.58032042449148
H         1.44847373384123   14.62468854336701    4.25165711607775
C         3.85273763554383   12.15587299293061    4.99677458239479
H         4.64569638993194   12.41317261164464    4.29785513514453
H         3.80890650522620   11.07094225158267    5.08040790756736
H         4.10721367625788   12.57257502841919    5.96957037092620
C         2.07877429649434   12.15084172537928    3.15972098308006
H         1.09912824432590   12.58160985759070    2.90583861585423
H         1.99962879231721   11.06225132528569    3.21102266263053
H         2.79043164860173   12.41644333496463    2.38034518406168
C        -0.02514285753438   10.28921171621038    5.58692641335588
C         0.97100863788940    9.77878211024385    6.41243038631804
H         1.76710862634818   10.41566757852829    6.78221838844127
C         0.98464735167436    8.44172922187327    6.78652184024439
H         1.77487123824694    8.07205733672346    7.42583099042160
C        -0.00701450713789    7.58219528126453    6.35173388989575
H         0.00230797641972    6.54353245562427    6.64873835768656
C        -1.01544858594167    8.06300492059894    5.53345500828527
H        -1.79831638608389    7.40082950756056    5.18746974745093
C        -1.01917834085109    9.39653886560121    5.15994437555921
C        -2.05406487892037    9.96708279437790    4.21928286674190
H        -2.99947397720195    9.40056247747104    4.25855586217482
C        -1.47360299306363    9.89950945136428    2.80199856498138
H        -0.67014239918722   10.64313844076831    2.71680311177904
H        -2.22544724474571   10.08412378243027    2.03890791901779
H        -1.04994204108727    8.91175245200638    2.63458945136886
C        -3.14417803059634   12.06568519384794    3.65025897008632
H        -4.06343732502346   11.49516771285507    3.46400655009551
H        -2.61093025613802   12.22075767211646    2.71336274713473
H        -3.40735812261243   13.04811017474889    4.04116291577416
C        -2.96182957542187   11.42236253761111    5.92677227501960
H        -2.98718613189541   12.46040429821160    6.27551475538708
H        -2.41973300075213   10.81234526412593    6.65396439527562
H        -3.99195570830276   11.04750431632169    5.85071427918850

