66
CSD_code = BARQER | q = 0 | S = 0 | Stoichiometry = C23H38Cl2NPTi | MND = 8
Ti        2.70490080017652   13.71706886725432    5.15057737228715
P         4.82033824331491   11.72266398327246    3.62880451489059
N         3.98799389661379   12.80605582184301    4.38184078992239
Cl        1.25553791273301   12.18497714213832    5.73929357776144
Cl        3.59440693382462   13.98776394837157    7.14190995348306
C         3.00466395642049   15.87433530775161    4.36249595887417
C         2.01038488649303   15.95892631272505    5.36387947835157
C         0.89713912906177   15.21937520081898    4.94036205525631
C         1.18685896993887   14.67624812598511    3.66798120176113
C         2.48454496862267   15.09849464989030    3.29968730495255
C         2.98891122032052    9.66745692254361    3.82918805545109
C         1.85784118659189    8.83123023380045    3.23595267837417
C         0.85304033315512    9.73248116623743    2.53069522762716
C         1.55588646150728   10.49111223977387    1.41214131030729
C         2.68511572722557   11.34074595053309    1.98737319115694
C         3.69961710492106   10.50011111982532    2.76281533869735
C         6.87046727100533   11.74391854168429    1.57331114152956
C         7.51573530092362   12.59351220825459    0.47780187809222
C         8.15334308013305   13.84538018209205    1.07507675896982
C         7.12020842493403   14.66473408981161    1.84577537197701
C         6.47222023302018   13.81010838697453    2.93124134184144
C         5.82595853209395   12.57483828001674    2.30727667569363
C         6.55106476413395    9.50939273028371    4.35057721264277
C         7.60195480872028    9.03986419115484    5.35725026500883
C         7.00632601770991    8.96756361117100    6.76081822378684
C         6.44688111544567   10.32526082972877    7.17943598963970
C         5.40101363220955   10.80205136521357    6.17574411206697
C         6.01840057549202   10.87366980673897    4.77921987599682
H         3.93822683714459   16.42596295770993    4.35053816287695
H         2.07594315207025   16.55311297263841    6.26636913758414
H        -0.05286309542817   15.14411070514759    5.45492184761662
H         0.48526209215447   14.14666227743675    3.03281089827830
H         2.94931692320221   14.95519248745450    2.33126356022470
H         3.69740220644986    9.00297463257668    4.32578623025147
H         2.57433114352616   10.35358704720613    4.57618419030638
H         2.26624860226566    8.10903231170428    2.52303659953138
H         1.36566937924851    8.27497330583947    4.03509591920093
H         0.44502287588190   10.44355918290759    3.25292457905135
H         0.03054857962591    9.13954420275811    2.12674700495636
H         0.84760305312682   11.13558221279936    0.88762651830522
H         1.96212398968133    9.78035162686966    0.68720501394526
H         2.26232292585656   12.07666309158181    2.69063629314380
H         3.18279502240735   11.88051414186004    1.17736333906836
H         4.27050675650949    9.85816831691430    2.08433031034573
H         7.64554508702431   11.42400958609292    2.27220657641473
H         6.41464231475942   10.85447674167363    1.13261873162090
H         8.27222343322225   12.00650810955069   -0.04711312130727
H         6.75505480050841   12.88542934810240   -0.25007550284070
H         8.95846153711252   13.55156687732257    1.75239463201111
H         8.59141669749534   14.45197769916779    0.28025433977456
H         6.35188029987051   15.02214891712531    1.15615862004519
H         7.59858625233815   15.53709937292975    2.29464605410420
H         5.70772500686128   14.37612257139945    3.47714350349840
H         7.23676477501663   13.50371519284828    3.64972158991964
H         5.07426690294742   12.92112823216735    1.58419467306662
H         5.74114767565993    8.77957150455023    4.32377832227234
H         6.98871384512379    9.55660189365626    3.35226824721617
H         7.98091592006759    8.05892536751099    5.06219594683507
H         8.44352006970714    9.73688591199099    5.35679924012868
H         6.20404328762190    8.22641027461668    6.77476759433971
H         7.77107701965818    8.64463583082087    7.46981420159789
H         7.25956629990494   11.05342390836559    7.23240309563029
H         5.99807424529005   10.25439280056186    8.17108182850090
H         5.02093476957556   11.79163547306637    6.45463007896043
H         4.55501478892621   10.11152387488105    6.17738455470024
H         6.86110904084744   11.57937782230494    4.82676033243016

