46
CSD_code = BASWEZ | q = 0 | S = 0 | Stoichiometry = C22H20AuClN2 | MND = 2
Au       -4.82788729939679   18.60202209961206    9.20615872869557
Cl       -4.56947799357221   19.33495155648135   11.29785576361317
C        -5.07412919902619   17.90995903891508    7.38277559026951
C        -5.47517485370385   18.66347768356972    6.15220024475825
H        -6.29383632004613   19.35703221570150    6.34284159968546
H        -4.61019087744836   19.25308963887447    5.82071987268858
N        -5.81885929161843   17.66929033969308    5.13200534480754
C        -5.19982047539282   16.45243182693861    5.58455526896642
H        -4.22876971611010   16.30121427252713    5.09118088793578
H        -5.82564490943619   15.57119493517758    5.41822215746036
N        -4.94805903349038   16.67102639224293    7.02074768899528
C        -7.25100671816481   17.53794987777098    4.89146370372702
H        -7.62636370409807   18.53553161813309    4.64398165571788
H        -7.79223096495594   17.17308585728683    5.77936125589685
C        -7.49039673820111   16.61831280801976    3.72406485001785
C        -6.82273651135290   16.84073462429807    2.52553434288403
H        -6.14112061612513   17.67469658302957    2.45446916688457
C        -7.02635100647876   16.00307858033331    1.44483454445270
H        -6.50471625686323   16.18534380383979    0.51688273534925
C        -7.90155255337265   14.93393132952370    1.54969117520896
H        -8.06202962934977   14.28074999518479    0.70490274337951
C        -8.56938982405687   14.70719885515399    2.73993895541176
H        -9.25307314755092   13.87569960508170    2.82749870364054
C        -8.36300530512789   15.54460329765783    3.82351310922770
H        -8.88580635064720   15.36299315045483    4.75166447293409
C        -4.50622317554935   15.60399704499653    7.83983786527640
C        -3.18189645456090   15.58096104461712    8.25551872079361
H        -2.52881648963572   16.39519885155250    7.97990823503399
C        -2.71497693399773   14.52527521131609    9.01612309818415
H        -1.68842889859927   14.51513535303606    9.34721748905153
C        -3.56791367640947   13.48549709161923    9.34808646891974
H        -3.20671964737791   12.65822293428132    9.93955331052633
C        -4.88645230536333   13.51015723864158    8.93404700503471
H        -5.55958841370592   12.71263487071333    9.21136673584292
C        -5.38181425955414   14.57236640632934    8.18359692342631
C        -6.80952500859127   14.61176076874171    7.81757701970626
C        -7.39868051729746   13.53658920112447    7.15850295361833
H        -6.79031878601473   12.68857048947466    6.87829098158380
C        -8.74791032010766   13.55658921793527    6.85591464709742
H        -9.19503065906922   12.71939086248629    6.34071975785358
C        -9.52472986569603   14.64661228296605    7.21477178305532
H       -10.57986222710199   14.65936953617516    6.98431935912515
C        -8.94601940452690   15.71847435504121    7.87477835112032
H        -9.54969126958513   16.56611171296097    8.16416769271519
C        -7.59501602263369   15.70508323766170    8.17351687321456
H        -7.15015636907041   16.53110230287840    8.71172016622288

