91
CSD_code = BECPOP | q = 0 | S = 0 | Stoichiometry = C32H52Cl2N2P2Ti | MND = 4
Ti        3.36613933024622   13.48955453499156    4.22919928333528
Cl        2.45468954960034   13.92268089598727    2.27816230332138
Cl        3.46233210295649   15.43968323676120    5.23334174396404
P         6.07456110157192   11.93128808175563    3.92637128367093
P         1.66362767235953   12.59669531952631    6.45953278527540
N         5.11945043411529   13.15219291598657    3.94749021819646
N         2.41197282277969   12.23898390264120    5.14167245254075
C         6.88517073232560   11.55024123166820    5.57873866427336
H         7.52778100695501   10.67311785245233    5.49198410485266
H         7.50467549496213   12.43458755860974    5.76773168302121
C         5.88376317435636   11.37958393206739    6.67298409489647
C         5.85555336924543   10.22513743161548    7.44908734004517
H         6.59482028908999    9.45189087752877    7.29193390705855
C         4.89321530860977   10.06543590535684    8.42967991252722
H         4.89531867098508    9.17808764160526    9.04569305838111
C         3.90965778993566   11.02296716867569    8.60272179020561
H         3.14354764112747   10.87600582836295    9.35073772321340
C         3.91345173142824   12.18041541072615    7.83082537475791
C         4.93660399326989   12.37085780746374    6.90659402696674
H         5.00300723229820   13.31183000666589    6.36638767669158
C         2.78688387314914   13.15362047681711    7.87101583237709
H         3.12529763861520   14.16681399883711    7.63791238322851
H         2.25458165352800   13.14025457092428    8.82141399318267
C         5.30008548104150   10.34862555404451    3.27977844564689
H         6.07678683726516    9.63901563826709    2.97343057369175
C         4.46404649756213   10.77477945413478    2.07420684630472
H         5.11521426686227   11.13980220142867    1.27452664888074
H         3.81366381808789   11.60730808717700    2.39548132860928
C         3.58115806081779    9.64582958388861    1.55408593585901
H         4.20100621699379    8.81636533295208    1.20170011178248
H         2.98975276044541   10.00794615120682    0.71132633186057
C         2.66697498031209    9.16490821002529    2.67388044116663
H         2.06707503694523   10.00988139088605    3.02841961483905
H         1.99254026065071    8.38726776572672    2.31001984686190
C         3.51559434419180    8.63601745753904    3.82343032772888
H         2.87530345860364    8.26808095756116    4.62754065806733
H         4.12532637167472    7.79958061352066    3.46947328587090
C         4.41747508805179    9.74198723632618    4.36761329287984
H         5.03710482426691    9.33999566586837    5.17118119568768
H         3.78605434932649   10.54281795151844    4.78290299983803
C         7.51877582926443   12.26100926174407    2.79631137347595
H         7.09605394691392   12.18345081573174    1.78446517654941
C         7.96736392773705   13.70419888939450    3.00774930445904
H         8.38004775551103   13.81684509614531    4.01450247350580
H         7.09587216298884   14.36054194443660    2.92841194299177
C         9.02960799820515   14.08286631034992    1.98061960703406
H         8.59693034516420   14.03712902528520    0.97862062346574
H         9.36593570277081   15.10700098049574    2.15324940496755
C        10.21577639612922   13.12485065202398    2.06515622871357
H        10.95789691132137   13.38379983017753    1.30734849588019
H        10.69063393939609   13.22310129769935    3.04440090352076
C         9.75888009839059   11.68149596277721    1.86971638291449
H        10.61383624050250   11.00656767621216    1.95199165195494
H         9.33709222324776   11.56697644875244    0.86842462730067
C         8.70388244816868   11.30973388176746    2.91154358845543
H         8.38400489601017   10.27567480729419    2.76333358349099
H         9.14952035471701   11.38983367444963    3.90518973887774
C         0.26015198498095   13.84603830271136    6.33997616802408
H        -0.64176335850879   13.33234767629077    6.69878932633578
C         0.06531480737819   14.19006676892951    4.86513818175924
H         0.96497212029188   14.70058573874976    4.49566904053458
H        -0.06542929967899   13.27093777356513    4.28095598093904
C        -1.13251934521723   15.11741427164887    4.68346988896495
H        -2.04508129146327   14.61196533830867    5.01279622669830
H        -1.24786966162208   15.36352345156313    3.62650401606395
C        -0.92972150816897   16.39049548023037    5.49954301925140
H        -1.78756472103957   17.05522588624377    5.37817783638762
H        -0.04266735683230   16.91227364941993    5.13466334002062
C        -0.73904441149787   16.04876326400535    6.97395429414188
H        -0.58311642613890   16.96245885660299    7.55089456405282
H        -1.64267778617971   15.56362835465937    7.35418446427026
C         0.45914863510786   15.11752467920101    7.15999596476053
H         1.36475300265380   15.62777765450319    6.82374933340331
H         0.56812579178851   14.87443778946446    8.21939939071086
C         0.89075347554657   11.03447180055240    7.10934016031611
H         1.75403329182045   10.37280734752600    7.27246365143741
C         0.08062440924206   11.13518681790998    8.39561602108851
H         0.68591462569507   11.54962304679427    9.20411154435203
H        -0.77780719933091   11.79467152280203    8.25030481090095
C        -0.42228914444779    9.74807458977707    8.79559553918931
H         0.43342803406376    9.09903170041689    8.99685920977994
H        -1.01237928227232    9.81908458426613    9.71219035496966
C        -1.26644566863553    9.13761293807279    7.68036553358096
H        -2.15242464712044    9.75592788412786    7.51753421431856
H        -1.60462790132067    8.14205403606073    7.97485156862861
C        -0.46317059751552    9.05423021578944    6.38483619320414
H        -1.08367891116238    8.64133896208475    5.58704202859711
H         0.38826402257942    8.38496769265235    6.52866408175061
C         0.04348391796129   10.43731966274980    5.98857122696825
H         0.65082650413530   10.38248447152199    5.08131042510201
H        -0.81039254814088   11.08983539698009    5.78463777036292

