24
CSD_code = BEHFIF | q = 0 | S = 0 | Stoichiometry = C6H8BrCuN4O2S2 | MND = 3
Cu        1.66613738417791    2.85424093011106    1.05951675191813
Br        1.26632006251858    2.14163012604238    3.23080647387795
O        -4.15377415171480    5.84783972159716    1.69555479728336
S         0.15049758842540    4.19921814307837   -0.06433427311443
O         7.17986248474449   -0.68207658672339    1.63744940274245
S         3.59021462503104    2.23746085463144   -0.07526465108306
N        -1.26402629417459    3.96426409426859    2.23558375611567
H        -0.58914456795632    3.37356482796840    2.72381417447567
C        -1.10037118453150    4.42988799073463    0.99984569246716
N        -2.19750613159996    5.19482587625940    0.68233235657975
H        -2.30113640564274    5.65400503206062   -0.21020688099800
C        -3.11519765695534    5.25412681269804    1.70709853193944
C        -2.50227091032707    4.40774806607719    2.81601326999709
H        -2.34091163086729    5.00367500811164    3.71960224252235
H        -3.15645757354052    3.56928077118329    3.07439122682745
N         4.11426064419152    0.88595375132042    2.21480707373309
H         3.26774429077155    1.17035197820618    2.71010127977866
C         4.42404228170449    1.26410096905782    0.97721431246650
N         5.63107752970703    0.69577571409666    0.64595933422601
H         6.07239652905679    0.83820450583220   -0.25022413759506
C         6.14848176143179   -0.07627078399218    1.66192127714522
C         5.11982959719901    0.02867954892820    2.78108131663228
H         4.71973263777804   -0.95720045391850    3.03750529866375
H         5.56509909057059    0.45971310237467    3.68303137339941

