25
CSD_code = BEJLAD | q = 0 | S = 0 | Stoichiometry = C10H10Br2HgN2 | MND = 4
Hg       16.15687186782034    6.87891793373702    6.40983006715500
Br       17.98370597075533    5.28655234004847    6.74199167653380
N        16.65290605742973    7.48839699047305    4.02993818196160
C        15.98056508047189    8.46015803603294    3.41681185523252
C        16.23987876454295    8.84835448362416    2.11385597903656
C        17.24378990315517    8.20077252736737    1.41190363834649
C        17.94372611350564    7.18719372076266    2.04639971787022
C        17.61439983494718    6.86585188082256    3.35174289508272
Br       14.67825557445084    8.75634394304117    6.93285692056996
N        14.40517871346320    5.25410033769583    5.66221448232244
C        13.14309886796109    5.64292019588416    5.49505938457942
C        12.13885239159415    4.78286916547825    5.08626666559034
C        12.45588016147285    3.45730085785369    4.83724445529624
C        13.76876048484459    3.04952678760674    5.00943368580640
C        14.70668530826448    3.97951016205052    5.42290025343340
H        15.20752613259233    8.94886443733243    3.99521390989589
H        15.66663407690588    9.64414659105884    1.66553070018368
H        17.47656181074451    8.48066861161849    0.39515437174878
H        18.73518593561583    6.65367600836755    1.54467189466031
H        18.14346090579912    6.08180400749716    3.87736184051138
H        12.92896632908921    6.68306710032846    5.70230865858316
H        11.13157501129080    5.15002673861117    4.96849021183363
H        11.69689553815259    2.75798813711772    4.51913776101263
H        14.06591345919986    2.02797614614698    4.83165376528116
H        15.73962570592920    3.69391285943856    5.57102702747345

