26
CSD_code = BENLEM | q = 0 | S = 0 | Stoichiometry = C12H8Cl2N2PtS | MND = 4
Pt        1.29731678027659    4.14652954089681   -0.99214924124593
Cl        0.34843218442948    4.50953173263594   -2.97440229193257
Cl        1.77347386940903    2.09914171010750   -1.72788956839856
N         0.86937589252940    5.98622644426895   -0.30645263423395
C         1.28179896707997    6.21317098875557    0.96246032061105
C         1.06230650549801    7.43210420107167    1.60545890039515
C         0.40584715255669    8.43692978155658    0.92558411459628
C        -0.01260901757784    8.19450316626783   -0.38027507035945
C         0.23699439167371    6.96390348653839   -0.95555337229683
C         1.95534676455750    5.10020566265060    1.56332408115292
N         2.12511796702185    3.98431680666283    0.88696285465918
C         2.79574229222801    3.03796303803025    1.61750179692553
C         3.14511369541984    3.47044571343819    2.91458829359023
S         2.60248156016521    5.10183941991374    3.17748391194337
C         3.82757074727175    2.65161571936240    3.79907928424184
C         4.16611688426663    1.38184013444671    3.37710222848230
C         3.82897444821661    0.94079292921759    2.09766100738675
C         3.14959383402343    1.74973900017789    1.21375530355668
H        -0.07163046056818    6.73386089048217   -1.96711494163915
H        -0.52743512336945    8.95348977830557   -0.94588629676072
H         0.22168224440698    9.38946667636935    1.39674355444644
H         1.40917485010161    7.56469005103206    2.61847242684146
H         4.08253875109074    3.00536139811727    4.78549154502588
H         4.69880373055733    0.72462266808206    4.04688482065546
H         4.10595075392866   -0.05585303674140    1.79175098548916
H         2.88102033480652    1.42176209835356    0.22061798686743

