58
CSD_code = BEQLAK | q = 0 | S = 0 | Stoichiometry = C30H23BrCuN2P | MND = 4
Br       11.73095134957231    9.55004553494206    5.19870404125670
Cu       10.45799995774185    7.69266665059102    5.52826825824571
P         9.33250589758099    7.14186271278810    3.65736319406645
N         9.09792738400532    7.85902471108572    7.05203266867891
N        11.05187701585646    6.08988118618183    6.53640579681508
H         8.08463256944747    9.55895946658182    6.56462101295801
H         6.69199273339974    9.55191832803383    8.62892099251732
H         6.99423526417150    7.70989783807059   10.28259904600041
H         8.22853927429840    5.61090056098374   10.92689762927854
H         9.97327651614623    3.94975800148129   10.42267506757643
H        11.81463032032437    3.14257909347344    8.91451544919121
H        13.12467909833025    3.48544278544618    6.81950037610938
H        12.56594113036424    5.40928289093291    5.34835249801740
H         9.18103009506410    4.76527488839877    5.19469395049065
H         7.58916668572928    2.87646099956488    5.30065231540886
H         5.61340761697003    2.85466321609686    3.82169377788085
H         5.23454879050359    4.70806268513989    2.24144484332728
H         6.82099711415565    6.59202407349990    2.13710867318621
H         6.83640794694882    8.07063081304664    4.65515932151640
H         5.49797104158592   10.10565138666449    4.26623089925335
H         6.24384116110580   11.77285142854044    2.60633335244203
H         8.32860614965536   11.40296945911701    1.34092949864254
H         9.66538099261546    9.37589978827527    1.72014090613531
H         9.13636700420071    5.18080250534372    1.39386291997462
H        10.58855389247480    4.81646128450248   -0.55329264476480
H        12.59164980287081    6.21291945373375   -0.89078265923582
H        13.15710779776200    7.97490373333607    0.74927954711411
H        11.72425809259624    8.33569263388460    2.71228682120870
C         8.19464166740412    8.78031828992463    7.30787635240337
C         7.41670028595613    8.77035658616307    8.46489083186750
C         7.58718832058559    7.75335906257404    9.38038330431749
C         8.55330461363465    6.76654090366861    9.13737365145021
C         8.81577888825125    5.68246125755442   10.02281030243697
C         9.77732198022785    4.76894214287278    9.74598047474044
C        10.57068155398538    4.86513327494801    8.56640809564393
C        11.59842374310301    3.96552165832986    8.24909803037770
C        12.32337220931648    4.15461036121348    7.08969501272207
C        12.01611631124622    5.23108909306509    6.26282656945380
C        10.33131832422843    5.92575237784720    7.66534967352941
C         9.30442216186003    6.87404351809051    7.94576107307789
C         8.10386604595624    5.79381895365069    3.65994666505505
C         8.31214567243528    4.74452333363574    4.54887244800985
C         7.42122136833030    3.68828538508728    4.60738654611229
C         6.31272722763630    3.67653988790707    3.77720605567138
C         6.09878641517641    4.72009863340076    2.88968716008485
C         6.98755265824049    5.77715203892651    2.82825688131525
C         8.32260718277373    8.57908121863847    3.19214489971408
C         7.15370464085787    8.80140912624626    3.92037876663110
C         6.40572272354528    9.94145053036642    3.70283832863083
C         6.82541329523403   10.87785746872613    2.77042967733035
C         7.99467924710153   10.66916891064837    2.05910737434758
C         8.74770495357557    9.52746963648362    2.26907753279908
C        10.31740115149714    6.80350808798451    2.16436508918847
C        10.01105479308963    5.79997128158106    1.25134966773958
C        10.83122352850256    5.59451688833926    0.15637135318450
C        11.95755491273466    6.37886888393278   -0.03223303802725
C        12.27455382354687    7.36800719350012    0.88495699120330
C        11.46472760447688    7.57665590494460    1.98580667568964

