34
CSD_code = BEVDIR | q = 0 | S = 0 | Stoichiometry = C14H14Cl2HgN2O | MND = 4
Hg        0.78201046794779    1.23309728639084    1.46873963951317
Cl       -1.00898489396898    1.64262154957266    0.10398049007955
Cl        1.74992533981810   -0.11693516102934    3.03191174165177
O        -1.18738850166695    6.44797241573415    5.80792190432672
N         2.57700032146264    1.94293794348247   -0.05527628877191
N         1.42546233856041    3.67053125878874    1.80498873820676
C         2.80164465921736    3.26231966112702   -0.11073740088485
C         3.62922709731040    3.81875442854888   -1.09054375462037
H         3.78980559974508    4.88588495981072   -1.11525453262684
C         4.23073975506331    2.99031378293912   -2.01959234168086
H         4.87040137444597    3.39924498041556   -2.78744409351790
C         3.99626603853528    1.62611468295620   -1.94345177540913
H         4.44669651706118    0.94111080151285   -2.64357505200507
C         3.15916765232277    1.15374979110042   -0.94225366113321
H         2.95041240316489    0.09568037867772   -0.84677447482902
C         2.17501080319604    4.12610617685335    0.87462333967521
H         2.40077494392807    5.18788322157320    0.75797480586384
C         0.82071541323560    4.45332185682879    2.76914756349471
C         0.96719683550505    5.84025821431196    2.90048870092911
H         1.59622594222660    6.39458954288856    2.22114839883042
C         0.31732877881308    6.53566997125379    3.89712366206147
H         0.45705788169596    7.60338190512122    3.96269634257513
C        -0.50814910538368    5.86767707273165    4.80520193188739
C        -0.65467448376935    4.47825418158005    4.68547552715593
H        -1.29039181201224    3.96999802032246    5.39251467856759
C        -0.00326823544799    3.79295757333584    3.69345605995086
H        -0.11888828470444    2.71521988087426    3.61130534366265
C        -1.10619788069508    7.85094581812008    5.99921983839109
H        -1.45432042104779    8.37219872687013    5.09762899476719
H        -0.06593849663096    8.14164988078480    6.19787411556829
C        -1.98838382424722    8.20241701039735    7.18610326786213
H        -3.01558683476950    7.91289192089271    6.98358396713937
H        -1.94882116315046    9.27155067542949    7.37229213006743
H        -1.64747622576267    7.67262958980231    8.07100219325254

