41
CSD_code = BEXTUU | q = 0 | S = 0 | Stoichiometry = C16H21ClN2Pd | MND = 4
Pd       -0.68821542506243    3.30031172494444   12.61445256177278
Cl        0.26993268337122    5.38061343567021   13.11561609199215
N         0.52475123717069    3.05385135220308   11.09222974159199
N        -2.03959591731188    3.54083531355521   14.15013165289853
H        -1.70152511216568    4.23704479113019   14.81965071997384
H        -2.93195847406460    3.86727317405402   13.77134800104307
C        -0.90178424738273    1.93610581305831   15.56443346925059
H        -0.03639012269756    2.12723357500949   14.91285606020191
H        -0.87593213711922    0.90170684845588   15.89750043508282
H        -0.84127177555350    2.58803640584507   16.43479770875004
C        -2.17893868817824    2.20997013081109   14.76532066566157
H        -3.05208862331789    2.16600579592082   15.43684501293012
C        -2.30610602875408    1.21411679047553   13.63247286885923
C        -3.03918274316236    0.04483267419845   13.75097982469372
H        -3.56495808384250   -0.17476394676185   14.67103277711404
C        -3.09511486739437   -0.84188727703872   12.68876043462202
H        -3.66380062369849   -1.75635071618855   12.77652318874629
C        -2.42008497429828   -0.55061497244644   11.51713819173511
H        -2.46158686646154   -1.24146130649845   10.68618091979514
C         1.03984729452007    3.56380799426024    8.83732483170911
H         0.74227157446946    4.01226376674032    7.90191903077753
C        -1.69030146089711    0.62407226955192   11.40073183171338
H        -1.16817743951161    0.82311498189127   10.47052057538954
C        -1.61311006471261    1.53003281694956   12.45275396868969
C         2.02859668389115    1.95620394184221   12.61091347489713
H         1.92929905259964    2.77795899422423   13.33446646091681
H         3.03608823705091    1.55247128340067   12.66523013895740
H         1.30621089968240    1.17144779610571   12.86642073622484
C         1.72262746578506    2.48655988635155   11.24584773096859
C         2.62159608974707    2.41848094962633   10.19339786990663
H         3.58381706423785    1.95274431035993   10.34076951061675
C         2.28583196268636    2.95731836830893    8.95672589850599
C         0.18002990715553    3.60279869421156    9.92289784905072
C        -1.15894338608367    4.27139994901275    9.87224727385456
H        -1.94349037102324    3.55659617593075   10.16167428309135
H        -1.37101526767027    4.66256184063542    8.88043153936495
H        -1.16258215690080    5.10118366908109   10.59501061164502
C         3.21958655858943    2.87542437667067    7.79298737628458
H         4.25025785961304    2.78961925405380    8.12720303264432
H         3.12137346123582    3.75143663079442    7.15655364777909
H         2.98273682544185    1.99574244360248    7.19350200028760

