85
CSD_code = BEXWOS | q = 0 | S = 0 | Stoichiometry = C32H50F2Ti | MND = 12
C         3.88202416717381   15.84113572827022    0.39044598475290
H         3.69020779784521   16.40774913325679    1.30183758535277
C         2.58940105299208   15.23579123198387   -0.07369987028314
H         2.53149681176457   15.05017156666237   -1.13815141797483
C         1.54185498865864   14.86363126707091    0.65026783413809
H         0.71114073025370   14.43124931382050    0.10318282602853
C         1.30259137598873   14.88587679500404    2.14110070344476
H         0.62195249443060   14.04652852107199    2.33217190874681
C         4.45693109515936   16.86486933914220   -0.62700800121026
C         3.45067287630887   18.01155924158133   -0.78420283629783
H         3.79439739043743   18.71633189167450   -1.53874686364966
H         3.33423425262288   18.55102383109424    0.15319472876729
H         2.47765881709020   17.63207191668985   -1.08933052871198
C         4.72984326957351   16.27209331145648   -2.01299465655421
H         3.80796355330055   15.99193065400504   -2.51572730274693
H         5.37265278477484   15.39791145838610   -1.95787182026118
H         5.23046987416956   17.01477706162001   -2.63115150766765
C         5.76534462179266   17.44482946352155   -0.07763416274898
H         6.55802552319132   16.70220603725225   -0.08407416783111
H         5.63216386903661   17.79741275896985    0.94276975792169
H         6.08571466511932   18.28690580357550   -0.68828466886959
C         0.52648532763859   16.14957429252815    2.60961226881938
C         0.18005219814130   16.02887222804110    4.09739059030111
H        -0.48382496461243   16.83997933606124    4.39012909839865
H         1.07186910678690   16.08908926779959    4.71518678824993
H        -0.32520329566260   15.08714383499722    4.30296381717334
C        -0.78265236625147   16.24085357986949    1.81545210252775
H        -1.36638218488007   15.32897548230795    1.92412028902587
H        -0.58129493984390   16.39939363522728    0.75927905584054
H        -1.38364704719634   17.07363269982621    2.17523465441575
C         1.31700159258391   17.43685651502020    2.38386157897319
H         1.56905044274601   17.54258373144758    1.33335149490297
H         2.22993829170854   17.44847055298520    2.97358879353756
H         0.71709671070052   18.29522535217894    2.68091129244828
C         4.27556809934290   13.48898993105686    1.32538142875291
C         3.30115066545695   13.42092460673532    2.35815383299242
C         2.99240522377013   12.05504932303824    2.58648799339093
C         3.76341608875639   11.27338280416594    1.67691876465103
C         4.55554581811543   12.15816584479645    0.90799912610277
C         4.89778988208740   14.72556821914922    0.73526216168974
H         5.43277508118848   14.42424767405948   -0.16556480403066
H         5.63187675692335   15.12406421789805    1.44449917957831
C         2.57542108588055   14.58812415108784    2.96218385078925
H         3.23714475501254   15.45031604450969    3.00673396887668
H         2.28253307567679   14.34129763512788    3.98574239092501
C         1.78607728630640   11.58845195021644    3.35236729896891
H         1.65095073509547   12.15995139070203    4.26979463714057
H         1.84133927204720   10.53320284281897    3.60358763164591
H         0.89298533461114   11.73048440569107    2.73787375312428
C         3.51102409978626    9.84100767666623    1.29303888853995
H         3.15543130679172    9.80989639597698    0.26060116748545
H         2.73922539182359    9.39508201464061    1.91565683356046
H         4.40882453000581    9.22598668500488    1.34850538215976
C         5.42395671600945   11.76887120736626   -0.25387538166726
H         5.53359257673162   10.68757672416638   -0.30815962070230
H         6.41612255149767   12.21289744855857   -0.16836741201334
H         4.97427719899634   12.11354174722927   -1.18799370491231
C         6.44652909238109   12.32611739566011    5.23934008131357
C         7.16998567509936   11.52582712162176    4.32900119067819
C         6.30734161312150   10.50963243945722    3.84875849485471
C         5.05073884021796   10.64462779317015    4.51285390210232
C         5.12833151130217   11.80397215277685    5.33942112218803
C         7.02049894692624   13.47436155851769    6.01218229275336
H         6.23827099899573   14.02315540596469    6.53125368257389
H         7.53768321926844   14.16265280561901    5.34196225036907
H         7.73942848404586   13.10770335223757    6.74819284268662
C         8.62141894830213   11.69320144461807    3.99897460538174
H         8.88082663696080   11.13836813954921    3.09993410925279
H         9.23698929879860   11.33023735065702    4.82581289142719
H         8.85612452324677   12.74493714488093    3.83428348975914
C         6.75405351189071    9.35649836568448    2.99305307378094
H         5.97586126889564    8.60001136743596    2.91811230866959
H         7.63509346607069    8.88691582747380    3.43445408941538
H         7.02286400463520    9.69026050685713    1.98781886836704
C         4.09074219904012    9.50596142896635    4.72516324043233
H         3.81567853435792    9.00356221487270    3.80197190340553
H         3.18703861151883    9.83452590947462    5.23183277705077
H         4.57461678340879    8.76608042515387    5.36981510898811
C         4.09038737879725   12.30190091139973    6.30620725395635
H         3.13691055479351   11.79845380054379    6.15924771425832
H         3.93803043422210   13.37639700391071    6.18504667887068
H         4.41321816658546   12.12007878667688    7.33392849153932
F         6.77893024220165   12.85866424228323    2.16385499439580
F         5.29223134956649   14.17859715923811    3.83915487388756
Ti        5.32081128991902   12.54501017022426    3.13246495163162

