53
CSD_code = BHEXNI | q = 0 | S = 0 | Stoichiometry = C20H26Br2N2NiO2 | MND = 6
Ni        8.09478214396047    3.67512707424789    4.16554436399284
Br        8.08296432192516    5.56244428847833    5.57130680188717
Br        8.09901829239864    1.68459104859244    2.76923275456737
O         9.76426783468057    2.58877131177598    5.49173754081751
O         6.73805001198039    2.77440941020531    5.39808542382636
N         9.42714050298007    4.47053861420475    3.00813822654868
H         9.46934139603131    3.79561183801992    2.23551845985568
N         6.28980709000651    4.52164072142425    2.89382757802159
H         6.13339126919790    3.87775155103263    2.11502657635195
C         9.25199641862291    1.75533874204027    6.51889825621866
H        10.07762461800075    1.42670337854160    7.16290475732519
H         8.76329957304211    0.87302594617720    6.08256699984501
C        10.79955157860259    2.14057444277847    4.72152375897196
C        11.33831053483899    0.86370983994027    4.80885179121696
H        10.94425659912975    0.14579874330653    5.50970933465159
C        12.37532406567727    0.48698869778857    3.97332875465484
H        12.77834050485610   -0.51134657014995    4.05005619173804
C        12.88306389006625    1.37305993831442    3.04346364464021
H        13.68652204020693    1.07739015190369    2.38717711226325
C        12.34546343916603    2.64501702451093    2.95355370980028
H        12.73820691021730    3.34111053496071    2.22578680027616
C        11.31324445614698    3.05108846242347    3.78326137814630
C        10.75735491959994    4.44675994321145    3.66033823508957
H        11.45625653328787    5.04289437890371    3.05778296498470
H        10.67623913699720    4.91564350471701    4.64629992935933
C         9.15190019985025    5.78365464548923    2.40597718749010
H         9.09072318601977    6.53323854630762    3.19857560346573
H        10.00067059035861    6.04656258401953    1.75650170142501
C         8.26760691285279    2.59054155027131    7.33833408415156
H         8.23175852101990    2.21398985200712    8.36099594044918
H         8.65050577612287    3.61157919856712    7.36735287722110
C         6.82983258249955    2.59069094462023    6.81022725908363
H         6.27967428127753    3.40627562693045    7.30257254932836
H         6.34848522376821    1.64393062215214    7.07643315156447
C         5.59914340963900    2.23395573110409    4.81577312104381
C         5.31253741564532    0.88132417977989    4.96246181602093
H         5.99204158741190    0.24296015540233    5.50804929180507
C         4.18887390234588    0.33287133677411    4.37622794738881
H         3.98860010261980   -0.72137950447462    4.49038778771982
C         3.33864330388620    1.13193147500680    3.63344439509263
H         2.45813056471073    0.71089635235051    3.17318928609181
C         3.63852174037995    2.46970122491269    3.46035332757381
H         2.98881155294439    3.09057390534418    2.86006184837932
C         4.76041504117475    3.04474494246446    4.04292684544443
C         5.09999780268189    4.48239454014309    3.75097598188836
H         5.32613925668671    5.02998574041907    4.67280486504943
H         4.24017320529341    4.97069552709647    3.26518646682982
C         6.57258052664459    5.84308984739295    2.34790793517340
H         5.75496179722829    6.18648448591322    1.69208147011756
H         6.65437344230270    6.54777219692721    3.18011511232824
C         7.88052747003471    5.82916143485714    1.55243101052779
H         7.92464831765668    6.74278175509003    0.95708365650176
H         7.87380420532352    4.98054808578178    0.86204613579293

