24
CSD_code = BIBYOB | q = 0 | S = 0 | Stoichiometry = C9H12BrHgN | MND = 2
Hg        0.89718231718000    6.03273117163224    1.75916255779282
Br       -1.00100239534233    7.65381904161677    2.24062552874566
N         1.64722496762840    5.56632452137054    4.35823430644859
C         2.63013420201145    4.64130632534126    1.72436340807990
C         2.96559145032025    4.02942029682666    2.93647777838502
C         4.09881748038646    3.22893002806156    3.01080377664524
H         4.35426095192854    2.76007007034650    3.95106276603790
C         4.89812100766653    3.02367494885975    1.90072795620527
H         5.77496713634873    2.39785973243525    1.97520130218629
C         4.56915181859627    3.62531200792310    0.70118643683979
H         5.18483422730321    3.47255729401787   -0.17271978792913
C         3.44430211984196    4.43317182912782    0.61538010639958
H         3.20843673591322    4.89454063506243   -0.33509576135739
C         2.09504500859536    4.18596157810768    4.16389199149805
H         1.20492224004176    3.55825752451091    4.03766196185373
H         2.63788172568303    3.82325028922954    5.05144336781279
C         0.57297817404890    5.62772347100952    5.34196907339570
H        -0.27414627675342    5.03493940675842    4.99904835167060
H         0.24787526850279    6.66071808838879    5.45152462087852
H         0.89581508361331    5.25169956400014    6.32256098134644
C         2.76709694777597    6.38807855722258    4.80351805416014
H         3.57550167902233    6.32740861875147    4.07585387390394
H         3.14582326720576    6.05697603522979    5.78055426425874
H         2.44448486249352    7.42446896418102    4.88596308473637

