61
CSD_code = BICWER | q = 0 | S = 0 | Stoichiometry = C32H23ClO2P2Pd | MND = 4
Pd       11.07323526106173    2.29170757028232    3.61707426943359
Cl        8.79204673133144    2.40666142734500    3.58951398082593
P        11.30591299869080    4.42786124091504    2.97959159924967
P        11.28493941830199    0.17254894869759    4.31799201303245
O        13.60715671580517    5.48627945209346    1.98599957980937
O        13.64827192451723   -0.99588254213861    5.03218295342882
C        11.35360341337926    5.32223495419728    4.56286810304194
C        11.10184935439175    4.61597939201566    5.73878387054907
H        10.83962854436768    3.54665568432889    5.69785451921094
C        11.15370813125518    5.27288854467796    6.95570323788725
H        10.95182863222091    4.73155079075364    7.86813479637300
C        11.45887534097331    6.62383281725865    7.00237286329413
H        11.49631948665703    7.13399580131643    7.95345841910801
C        11.71421843749646    7.32426385388241    5.83313154459513
H        11.95321848006181    8.37662214139879    5.87538580976148
C        11.66449696341605    6.67870079389578    4.61171767708975
H        11.86687950464233    7.21459563096868    3.69453030015058
C        10.41941792003167    5.53321616045806    1.86117496233674
C        10.83319666661242    5.68890700895658    0.54147838039078
H        11.72573267923578    5.18906305233914    0.19194308298968
C        10.10489387702964    6.49885964073618   -0.31089376537057
H        10.43013128301589    6.63282791285181   -1.33211174003136
C         8.95831880634159    7.13190637199397    0.14098697782864
H         8.39102593350649    7.76050623058810   -0.52949604689133
C         8.53087329370012    6.95374414557553    1.44793291324034
H         7.62873777112323    7.43724209168226    1.79250149829820
C         9.25501656132949    6.15315819305015    2.31009549955402
H         8.92452037543533    5.99480624814585    3.32804501161089
C        13.11956636619100    4.54376312479789    2.56518029554593
C        13.82449100508424    3.36266145328758    3.07753296656216
C        15.22118240928422    3.34464565350055    3.03973209373139
H        15.73323906642255    4.20659145888267    2.63548792749227
C        15.92268066810901    2.24868361020212    3.50659276791709
H        17.00163754420181    2.23988293367538    3.47997591183108
C        15.22636358661843    1.16362647896748    4.00384765291786
H        15.74244955156339    0.28985281186739    4.37610039058988
C        13.82848260661416    1.16930490111514    4.03581870075752
C        13.08567467878276    2.27387637035506    3.57959654202318
C        13.13179239165738   -0.01018811748480    4.55885558326972
C        11.13047984858184   -0.83876505421015    2.81231422880567
C        10.96176312710029   -0.16936091180684    1.60023705768494
H        10.88959840821242    0.93014886721742    1.58143669496687
C        10.86060791433174   -0.89320707003281    0.42620667703923
H        10.72345545076312   -0.37948464382218   -0.51378963060230
C        10.92888196496016   -2.27732529866192    0.45731323855262
H        10.84805556007172   -2.84047238863296   -0.46054832218712
C        11.09459573221182   -2.94150253228209    1.66236801844227
H        11.14361154180489   -4.02020111620273    1.68261390668633
C        11.19622272688800   -2.22770716314976    2.84251943642418
H        11.32244675364654   -2.74088058760604    3.78482845384098
C        10.41945715607280   -0.75873698867653    5.60939150061190
C        10.99007828228658   -1.80828836646011    6.32378353520865
H        12.01412652131907   -2.09901648848420    6.14396042481304
C        10.23713186767899   -2.46203986531129    7.28345022924218
H        10.67492642643398   -3.27753426046523    7.84065393803375
C         8.92998671891274   -2.07587408954420    7.53326422389831
H         8.35114834767158   -2.59241717837083    8.28505517351839
C         8.36690120954824   -1.02427985456737    6.82766964574746
H         7.35066919074961   -0.71878525660946    7.02769344657179
C         9.10827876338086   -0.36079966133087    5.86782602569765
H         8.68436210673985    0.46849567181146    5.31397895338103

