46
CSD_code = BIHQUF | q = 0 | S = 0 | Stoichiometry = C21H21Cl2PPt | MND = 5
Pt        9.59309247468713    2.05314416717780    5.22070763760395
Cl        7.73533410149191    2.05898501042552    3.91410939639882
Cl        8.23205760586840    2.01903665817853    7.07236391076643
P        10.58256208180993    1.93308174313454    3.13382451348671
C        10.41092603510785    3.37682384714684    2.05152973510634
C        11.08175345491926    3.44235477452083    0.83187133838397
H        11.72499080893633    2.62830798822969    0.52475236858914
C        10.93759124796945    4.55809319512463    0.02853421032753
H        11.45117563949023    4.60601583145165   -0.92057597516596
C        10.14015632766858    5.61488464786707    0.44054066537146
H        10.03019003720629    6.48313786399332   -0.19203008828680
C         9.49351693096406    5.56264247118255    1.66429491146526
H         8.88291548242712    6.39129388181473    1.98992675998484
C         9.62955960870121    4.44703156416296    2.47110189695881
H         9.12630730742937    4.39041670083834    3.42921296889333
C         9.86169681612680    0.50473148167813    2.27486062808424
C         9.56661528785996    0.46934788437152    0.91965191842888
H         9.74619620685442    1.33477591662363    0.29900678921867
C         9.00974758760884   -0.67360040771813    0.37008202093104
H         8.77140919733688   -0.69748075108942   -0.68314306322940
C         8.74797519727890   -1.77685162225888    1.16397131789687
H         8.30907692634985   -2.66247411429626    0.72919022523020
C         9.02907167336455   -1.73901872596135    2.52142347102555
H         8.80581117744119   -2.59122263537368    3.14587594518349
C         9.57963647347603   -0.60076639181143    3.07606656766972
H         9.76980024160528   -0.54262346437041    4.14615954102689
C        12.37528945761437    1.60476709617059    3.03293859217293
C        12.87594369265448    0.30790634618929    2.98760624793428
H        12.19403277409906   -0.52920021914271    2.93445446018216
C        14.24226374596010    0.08972735163135    2.99643610418742
H        14.62361626989379   -0.91973081194825    2.95280141307349
C        15.11887170652449    1.15994776601596    3.06119707808475
H        16.18442598728906    0.98671937892124    3.06821104586588
C        14.62642934989299    2.45433367832271    3.11674004576815
H        15.30753053131329    3.29093777975906    3.16763734757364
C        13.26262735809244    2.67673380874793    3.10796831560849
H        12.87597931524578    3.68707274283947    3.14264682515590
C        11.22478002433507    1.47386465620378    6.50511691764122
C        11.35640275992269    2.82836881476946    6.24694220023499
C        10.97776989649959    3.89960746680211    7.22317113834468
H        10.30036542302614    3.51486105322820    7.98107177368334
H        10.49977786692301    4.73642428151015    6.71234688969986
H        11.87951056654713    4.27999302239938    7.70538311650289
H        12.07323336839373    3.14354771248871    5.48591676900637
H        10.83498660748822    1.14790431716828    7.46222085122441
H        11.85319736830618    0.76044624288349    5.97798325670660

