53
CSD_code = BILPAP | q = 0 | S = 0 | Stoichiometry = C20H24Cl2N2O4Pd | MND = 4
Pd       -3.88005410893769   16.92284825625723   11.35235009673883
Cl       -3.71066453851972   18.35537440360100   13.02751605140739
Cl       -6.07582607971226   17.15149907134974   11.38327265423066
N        -1.86608759296385   16.72532607151196   11.11212310425901
N        -3.89317708699361   15.45779938314904    9.91830433309721
O         1.06581177648044   15.02880691109926    7.82438441644145
O        -1.12510633268796   15.21946693828053    7.30563969996692
O        -0.55461667096994   13.36850011248806   10.55980493936297
O        -0.77243459201376   12.05406828732815    8.73146021724447
C        -0.92206173045012   17.54105788805435   11.58155576228295
H        -1.22133998888671   18.17965814830958   12.40575721271480
C         0.35319854729984   17.57347691527421   11.04678289331617
H         1.10196528293162   18.22131424741146   11.47304901706456
C         0.62767951348037   16.81328058416056    9.91738877082424
H         1.57800807247746   16.88666851066645    9.41137890684221
C        -0.35515247097792   15.96947706368916    9.41481368983318
C        -1.57560105746643   15.89024480863840   10.09976090511344
C        -2.65425898990385   14.96879561741591    9.73629530077084
C        -2.45186601330926   13.66019853592730    9.28209552180991
C        -3.54771159042841   12.94700895871239    8.81277493873589
H        -3.39957830971267   11.94781700752131    8.43242316322404
C        -4.80658955323903   13.52700141686940    8.87574339888304
H        -5.67465631625909   13.01043890129898    8.50001859921922
C        -4.94392767637880   14.75797835217159    9.49443914848153
H        -5.91255849745726   15.21372823285463    9.66839837463449
C        -0.19480467081756   15.33553167287049    8.06497621628158
C         1.49185015505977   14.55410889690350    6.51063721069406
C         1.29685831536864   15.67662489178295    5.49276631907111
H         0.24276340985023   15.92573068783476    5.40160204923441
H         1.66323303909628   15.35438142899742    4.52253751039532
H         1.84475673747309   16.56585643409902    5.79847407536030
C         0.72225771843820   13.30159425116363    6.10245443912481
H         0.71061079251602   12.57688719566818    6.91267731323510
H         1.20017339818364   12.85366754889073    5.23586856146082
H        -0.30623295378668   13.54534542243839    5.85206463948344
C         2.97632847970838   14.24242140820316    6.69587612545673
H         3.49965167556183   15.11733333409770    7.07347402859967
H         3.41299361082933   13.95636733009043    5.74403696618001
H         3.10537515220487   13.42730769009713    7.40241493223817
C        -1.14876604208800   12.94191999548527    9.45177572377464
C         0.63044506067677   12.72558741783693   11.10805902778764
C         0.28062655331369   11.29668003214794   11.51979951496849
H        -0.55491796700265   11.30089868050408   12.21640541369555
H         1.13781479331692   10.83470552556057   12.00087907042577
H         0.00909714261313   10.70695371167968   10.64782609386355
C         1.77953767404077   12.74345069501369   10.10438429014340
H         1.56234895320552   12.08588958523511    9.26706467717200
H         2.68766162089426   12.40057514709881   10.59276598773299
H         1.93687187608125   13.75263980799902    9.73108457760400
C         0.96714064642394   13.57990336089333   12.32981878774704
H         1.22680983411039   14.58966217301506   12.02124078692267
H         1.80502795895464   13.14639097994859   12.86706811138956
H         0.10899304038530   13.63305007039146   12.99453643345651

