27
CSD_code = BIUZNC | q = 0 | S = 0 | Stoichiometry = C4H10Cl2N6O4Zn | MND = 6
Cl       -0.11895308078017   -1.03826469844861    2.01916794062056
C        -2.78904832516463   -0.23998927868623    0.91010122205991
C        -1.66248995383974   -2.26499653050648    0.15720739325119
H        -3.74757226741905    1.17535582249967    1.96764948547940
H        -4.20108812316639   -0.42328653216165    2.41124953236276
H        -0.67326576930682   -3.99089528251037    0.19471830451449
H        -1.79638246099962   -3.83391189554780    1.45794035514390
H        -3.24078133051648   -2.15855089456281    1.45790158925078
N        -2.73760823337378   -1.61743183522278    0.76876124570924
N        -3.75449733325863    0.19144164547023    1.75413410229617
N        -1.52431692198066   -3.56223001738146    0.52737136176895
O        -2.09254228716549    0.54045236442071    0.29339737334283
O        -1.01260032125830   -1.76987635949220   -0.74164277855708
Zn        0.00062688267984   -0.00062935960836    0.00019869292247
Cl        0.12012026040331    1.03702854057554   -2.01886880272633
O         2.09420110784904   -0.54032035126505   -0.29270006848425
O         1.01266493831991    1.76925695646405    0.74188162385068
C         2.78985631516657    0.24045175106323   -0.90994147029093
C         1.66224345151875    2.26476831287476   -0.15699328112430
N         2.73781675290688    1.61786877640863   -0.76847737256301
N         3.75501213101604   -0.19047360762978   -1.75455721698320
N         1.52297438578022    3.56179528261208   -0.52748416356876
H         3.24049884156280    2.15926609529057   -1.45775228358889
H         3.74835692512030   -1.17438580656037   -1.96810072918457
H         4.20055761599409    0.42447183141773   -2.41217778366727
H         0.67159728360241    3.98977555821070   -0.19478780571472
H         1.79461951630863    3.83330951227561   -1.45819646612013

