34
CSD_code = BIZGIA | q = 0 | S = 0 | Stoichiometry = C12H14ClCoO4S2 | MND = 8
Co        3.53156948548625    1.36848223246700    4.87781584704563
Cl        4.72008296400058   -0.40669043991010    4.58587612660704
S         1.67849544338582    0.06487123325176    4.99563219886274
S         3.44424555090314    1.31456816003203    2.61587973696538
O         0.59397801799842   -2.67944272961668    3.43113236235279
O        -0.63892794008536   -0.94229555216455    2.71671389168436
O         2.71329581332286    0.19242975120720    0.05714531197953
O         1.39682359865137   -1.48357673742828    0.78920737716242
C         1.53180010447730   -0.46866845370160    3.39431517991125
C         2.24977707849069    0.02054591033573    2.35546746977688
C         0.47155536662280   -1.51742546303966    3.17906371923830
C        -1.72721150491317   -1.82427281731455    2.46353082982380
C         2.16139592890617   -0.39430107287426    0.96089320967928
C         1.27721859881611   -1.95823856394729   -0.54497423153200
C         2.44417478131688    2.70246634623675    1.97755788162804
C         3.08252103455469    3.35845564586328    5.32612890618107
C         2.82155647301044    2.55558271268619    6.45326774799403
C         4.03214286321353    1.90816256557081    6.82343386918777
C         5.05676602772940    2.37641736348164    5.96199865373665
C         4.47196281549022    3.25064994888202    5.02560515919082
H        -2.54812749788944   -1.20091477024510    2.11917457665825
H        -2.00215201767026   -2.35638051592193    3.37602617627366
H        -1.44665926818410   -2.55181249908443    1.70005549579394
H         0.56785004712349   -1.34098752243006   -1.10129080133928
H         2.24687977478438   -1.92437886927708   -1.04484867594883
H         0.91753623345258   -2.98159153041897   -0.47243825867621
H         3.01276106071233    3.61486560001526    2.11929541323260
H         1.49293714814376    2.74916546881705    2.49709707062092
H         2.29638188099366    2.51537402984686    0.91814467511216
H         2.38904519542513    4.04338627982209    4.86673874683717
H         1.88267139401395    2.48026075360797    6.97696067172919
H         4.17380809118504    1.28634631738984    7.69284081808069
H         6.10432587174202    2.13715623116614    6.03846495283030
H         5.00381958478683    3.81969098668699    4.27968789131992

