36
CSD_code = BOCGUW | q = 0 | S = 0 | Stoichiometry = C14H14Cl3IrN2OS | MND = 6
Ir        0.04414947559928    8.81448958403238    6.44530634725984
Cl        2.03893668535036    7.87594970080819    5.79186514348253
Cl        1.08668090102020   10.13481420567275    8.08049142123585
Cl       -1.15603411287658    7.63830465095443    4.80872255968209
S         0.64447190741930   10.37744111471124    4.83921682267332
O        -0.29448029764170   11.47567270338899    4.64391543639710
C         2.26566084895959   11.13444544625739    5.12843867243867
H         2.44779533446090   11.85407371343624    4.33900548588882
H         3.00643151508138   10.34380802830855    5.14137479381406
H         2.22939207635356   11.62474542237275    6.09569745476384
C         0.94792459149197    9.66613861571695    3.19992968596241
H         0.03270762644359    9.17859341137832    2.88069043690532
H         1.74344255684805    8.93657007863895    3.29361222094374
H         1.20921804896603   10.47326382340133    2.52562623813995
N        -1.72987306975405    9.58464631398306    7.07707040139889
N        -0.41062059642755    7.42687201929273    7.82747774590783
C        -2.35545479926136   10.66758486182631    6.66844468535893
H        -1.87623935964612   11.24176631994533    5.88530897151298
C        -3.57974679915744   11.06886575426972    7.21209349806308
H        -4.04743860313302   11.96513617105336    6.83739361285349
C        -4.16773834010425   10.32547580305229    8.20831685918231
H        -5.11184670225535   10.61689932621582    8.64372762623758
C        -3.51756333500251    9.16508095626260    8.66081956026085
C        -4.01583044245080    8.30802344819449    9.68491584376243
H        -4.95648469418656    8.56655042953023   10.14774881976435
C        -3.33631148329409    7.19990261280562   10.07340578813382
H        -3.72531058114764    6.55997454560896   10.85102165067939
C        -2.09373018614663    6.84360295775877    9.47274859120426
C        -1.33588289606246    5.71302447882767    9.82050267815448
H        -1.68948507764507    5.04619704625786   10.59235548960901
C        -0.14970493437395    5.47906365177772    9.16378300659842
H         0.45762675836242    4.62135971546671    9.40428822877445
C         0.28582760229946    6.35765073753728    8.16968343659245
H         1.21619897597880    6.19160597705845    7.64233762134442
C        -1.58006278728457    7.67520162747053    8.45973742576311
C        -2.29052580675260    8.83890474665613    8.05232573927193

