78
CSD_code = BODTAQ | q = 0 | S = 0 | Stoichiometry = C41H30Cl2N2P2Pd | MND = 4
Pd        2.58135988779679    3.13863038402391    9.18984559356809
P         4.19671087886744    4.19201536399392   10.32017702239312
P         2.47279453547796    1.38544888595866   10.59241595789335
Cl        2.71850338321616    4.90335105104763    7.77663518621620
Cl        0.85471605805016    2.25153190149078    8.01963966141512
C         4.03312218095633    3.93170025261020   12.09490506845104
C         3.88949413734116    2.91419118047897   14.03583798484228
C         3.90805219764404    2.07338985212856   15.13723921490762
C         3.43761992954569    2.59416066373453   16.32490699789081
C         2.96371204988613    3.90556808320740   16.41397581888964
C         2.95280868474816    4.74952608310038   15.32476945817427
C         3.42778352806452    4.24837693495743   14.11710211690499
C         4.79813566249746    1.55593975084859   12.16564831662246
C         4.07085437735267    0.79677830646904   11.26576042574922
C         4.65775029000773   -0.37007398963328   10.73220018180661
C         5.91710788893373   -0.75365501764831   11.08702950869204
C         6.67923211858010    0.00779232234163   11.99616187188485
C         7.99383632347054   -0.35432852445537   12.35207461832260
C         8.71660414260913    0.40702066062192   13.22690490573293
C         8.15275244926581    1.56382055394828   13.78499692925962
C         6.87969530338919    1.94237829534764   13.46248257453864
C         6.10797276757374    1.17734107938213   12.56113744548593
C         1.69493464884045   -0.13400177777115    9.97917837735199
C         0.72671938086167   -0.84611438841631   10.67276732019726
C         0.16734767504071   -1.97585544228751   10.09870559060945
C         0.56536494846079   -2.39087399429162    8.83982892090668
C         1.52171659542005   -1.67157861508708    8.13860793626686
C         2.08108359093008   -0.54250563052930    8.70232171423295
C         1.51439954505451    1.91060864767817   12.04058318536588
C         1.48252679312571    1.19545817432102   13.23423470369738
C         0.74910557695860    1.67750232316137   14.30302727329303
C         0.06111001012664    2.87469742183345   14.19043034578547
C         0.08888185522558    3.58901113629272   13.00301840687157
C         0.80961449548078    3.10785564613743   11.92566685148311
C         5.79255351108460    3.41432007696461    9.94630110155613
C         5.82437118025968    2.50572441563433    8.89100711217035
C         6.99275227212796    1.82381697370747    8.60443936040373
C         8.12852502659985    2.05120195034545    9.36580949691016
C         8.10399633003876    2.96786873136566   10.40502056304785
C         6.93842275879969    3.65063999862285   10.69984444518055
C         4.39372101226063    5.98345400756089   10.23690083107536
C         5.55015725419384    6.60495079942059    9.78717503063980
C         5.59002752514031    7.98680129393739    9.70844405955902
C         4.48398093568956    8.73805894278307   10.06669980807289
C         3.32344029732515    8.11240356391997   10.49755153331976
C         3.27204444290770    6.73554538027398   10.57642214007592
N         3.54267568611642    4.84168626568806   12.89113768628125
N         4.24686929111244    2.72640995055098   12.72150727997420
H         4.27591131455923    1.06076430830400   15.06493693528261
H         2.60154710812062    4.26312517717137   17.36627843392910
H         2.59206940742828    5.76287567900603   15.38998819425358
H         4.08665260981636   -0.96622271446030   10.03582992330501
H         6.35161203511416   -1.64950934858849   10.66833809358795
H         8.41815953586007   -1.24689882695723   11.91622482024333
H         9.72414722275100    0.12539537217436   13.49385956070051
H         8.73379835417371    2.15867019403131   14.47378747316345
H         6.45972481744030    2.83686362299949   13.89753642138114
H         0.39654920003978   -0.51370270462184   11.64637176203581
H        -0.59089967112258   -2.52725824650481   10.63519218915372
H         0.11804313900994   -3.26750929028195    8.39531229008349
H         1.81507160084680   -1.98305203000740    7.14725592823969
H         2.79797773039683    0.05801919014557    8.14922628414581
H         2.04381916745038    0.27433405907982   13.32340248252573
H         0.72412197000334    1.12453753295745   15.23023402500702
H        -0.49745780540216    3.25285391698302   15.03325346247578
H        -0.44862734767802    4.52140703876472   12.92002122874855
H         0.83004824343682    3.65937651673390   10.97459658024279
H         4.91596635662300    2.34740102035660    8.29350829150814
H         7.02100569766652    1.11564933996627    7.78989465063797
H         9.03954331934629    1.51483565824557    9.14626333247818
H         8.99378696613141    3.14441218677255   10.99098286868615
H         6.90567422236365    4.36256127966647   11.51387563059277
H         6.40615600392821    6.01601240328318    9.48764503958008
H         6.48627936990109    8.47681517027916    9.35662516798980
H         4.52076989256572    9.81534341759291    9.99666334641228
H         2.45699527291780    8.70190377486918   10.75796477585770
H         2.36888591089424    6.22434573111464   10.88735767831797
H         3.43460694003656    1.97406064455976   17.20879519534514

