65
CSD_code = BOHRIA | q = 0 | S = 0 | Stoichiometry = C22H34Cl2N6Pt | MND = 5
Pt        7.30378521356315   11.08982121351887    2.08375552093126
Cl        7.10095866456138   12.87840051793226    3.55712736952149
Cl        7.31745596555321    9.24694100856146    0.62516133985776
N         5.32710240905435   11.29341539052536    1.60659601214070
N         3.64169282853834   10.01557374495695    0.57548524435835
N         4.55711583457694    9.33859692438955    2.58994110609971
N         2.93006985575776   11.92638824700177    2.84213095287403
N         2.44453511870509   11.30973093818633    5.00222604650587
N         3.11609980983666   13.48558073731872    4.61868402152303
C         5.07563249205556   12.43402450442900    0.83238447984779
C         6.08943389681604   12.90477297870535    0.01975601507532
H         7.05484470988886   12.39810941743441    0.02800912466645
C         5.88488855290614   13.97361108805545   -0.85251454163736
H         6.69688398319832   14.30835774947524   -1.48052952323463
C         4.65322497108508   14.55902240154283   -0.93094849686934
H         4.46512742443545   15.35774215110852   -1.63338939750103
C         3.60627529497634   14.15455129192849   -0.07715365380975
C         2.35752370177876   14.80600888651478   -0.13953117357907
H         2.21457274503281   15.58141437171726   -0.87758457849693
C         1.35900733336274   14.47507326182913    0.73306719738801
H         0.39977706436384   14.97120918957355    0.68725886374175
C         1.58949949560049   13.52322431487434    1.72344825466244
H         0.82037889235674   13.30808739903774    2.45338867181769
C         2.79711449777224   12.85021087685788    1.82586258969310
C         3.81938414572662   13.10668827342397    0.86365842840273
C         4.51766183359488   10.25741346022643    1.58797190005527
C         2.31213826012282    9.51012229081576    0.81240563915860
H         2.18008675301793    9.30714774954601    1.86869012307771
H         2.13036292473911    8.59919377958552    0.23447031896991
H         1.58109286677172   10.26538625211291    0.50764618797399
C         3.89507106440571   10.43064387687063   -0.78301483628595
H         3.38166990459662   11.36150484499701   -1.04311428357602
H         3.54002516846736    9.63957882416373   -1.44805766533456
H         4.96424697585666   10.55152894153804   -0.93826834208028
C         5.27713977977782    9.63517382267100    3.80642692154751
H         6.35878987462431    9.44379298104723    3.70359533375046
H         4.89486157751946    8.98994134825773    4.59853152499315
H         5.11748444761999   10.67754688614726    4.07919315493302
C         4.47730778394767    7.92398056993095    2.29172834698137
H         4.19310868836727    7.76834296714463    1.25642899986181
H         3.75295746025091    7.43361268957400    2.94668359403359
H         5.45815846047204    7.46334663902343    2.44077537273368
C         2.83273838640756   12.25145078804114    4.08226692264664
C         3.08533629951168   11.20334354872859    6.29186362432664
H         3.60979936006288   10.24631712752657    6.37568896674343
H         2.34828447596856   11.25930785833215    7.09873023457098
H         3.80925277897360   12.00417521333475    6.41305149705256
C         1.74869783911992   10.12932436011426    4.56290428526257
H         1.20704268699095   10.36463159110874    3.65014997506664
H         1.03893855368122    9.82947804735097    5.33766714022414
H         2.42759820699173    9.29290325602811    4.36863561390091
C         3.96218779039078   14.42946826702886    3.93011182240627
H         4.72661673130609   13.89897637617898    3.36809578922858
H         4.46366256640402   15.04442092152403    4.67948160317505
H         3.40331084626326   15.08647419701751    3.25351638730315
C         2.26044680967617   14.07338571675283    5.62227220255576
H         1.73936270639317   14.94172014171123    5.20242459895036
H         2.84630238563965   14.41058328230294    6.48216669827932
H         1.51802576572179   13.35316896277824    5.95495762932074
C         9.42299316524006   11.34250708812561    1.93605478224801
H         9.65571154489350   12.38983302285090    2.11131621994243
H         9.76259426333519   10.92945426935060    0.98986996299078
C         9.15240195016814   10.50448637476480    2.99996436114367
H         9.17873597990668   10.88716641835119    4.01641623811238
H         9.28111018130449    9.43100836813743    2.88951127975282

