57
CSD_code = BOJQAV | q = 0 | S = 0 | Stoichiometry = C23H29AuClPSi2 | MND = 2
C         1.55302649824195    5.46592628590120   11.64634161808026
C         2.48750216411991    6.32929061962349   11.07577912978300
C         2.13959029117208    7.42250829172577   10.28882682768641
H         2.94813069606024    7.96346881805953    9.81299887693728
C         0.84782280379583    7.88594107460947   10.06126735755440
C        -0.27712759588240    7.36110442726435   10.69625671452968
C         0.70544764731178    8.97422010163995    9.07572820466031
C         1.39628645147661   10.17271778746462    9.21701357890369
H         2.01037135604098   10.33372129034750   10.09163924445415
C         1.28052557979806   11.16183599335717    8.25745240116024
H         1.80983010478750   12.09510733293942    8.38133422307747
C         0.49227216883247   10.95662031753661    7.13729573658508
H         0.40719306022772   11.72828323355074    6.38689749767796
C        -0.18275468369942    9.75751813989213    6.98025635047563
H        -0.79092123965385    9.58996317994868    6.10348555378478
C        -0.08051196133416    8.77293428791470    7.94578854241288
H        -0.59717931433395    7.83227520203664    7.82468139939451
C         3.93138390945406    6.12715824780000   11.30409101010317
C         4.43105069570639    6.18510849293137   12.60078106584470
H         3.74658629946495    6.33655083123822   13.42268605925046
C         5.78938824018958    6.06855179236134   12.83249053599414
H         6.16925751394895    6.12196054866220   13.84224255780234
C         6.66106751698913    5.88232353218585   11.77255985665369
H         7.72092861512036    5.78457258999340   11.95396974816198
C         6.17040356177415    5.82597929051395   10.47866796388477
H         6.84800267206848    5.68230949451431    9.64996681432544
C         4.81415175396184    5.95937919564445   10.24305936332650
H         4.43105196186663    5.91649636456335    9.23338319378991
C         3.69366933878567    3.08938958104063   12.06815140818624
H         3.98099020405297    3.22870514066771   11.03099926843693
H         3.72115396862818    2.02409077804177   12.27570777431316
H         4.44964825645242    3.56218279391157   12.68389279137673
C         1.60766247466174    3.88137904880056   14.29035253102377
H         0.62126705258037    4.29868997249778   14.47774402582449
H         2.33603332070106    4.50884810249387   14.79548530127713
H         1.64194197667611    2.90170060020799   14.75569724326353
C         0.72616306229233    2.53747523472950   11.58988758622631
H         0.62220899141175    2.74063589973645   10.52688779546655
H        -0.26530270325230    2.60131774765072   12.03123057529991
H         1.06262952110854    1.51102282128735   11.69622516026135
C        -2.54030034025326    8.09259238907397   12.58589746599996
H        -3.24233019673960    8.88104614114072   12.83809201899721
H        -1.68865257922805    8.18408553097753   13.25612431857429
H        -3.02507152138535    7.14483307017794   12.80434069683293
C        -3.20101327280517    7.21074091500378    9.65142445147179
H        -2.97645533630280    7.32406635574027    8.59543876334910
H        -4.22218784331392    7.54438013163938    9.80543597638057
H        -3.16475753728096    6.15068629548391    9.88981583364869
C        -1.97584344231226   10.04713749024236   10.29708427727851
H        -1.90954308611423   10.21043628238284    9.22799183256952
H        -1.14295112279291   10.56602916279794   10.76106979625074
H        -2.88995788210868   10.51910058923224   10.64428432766821
Si        1.94276922934444    3.75108687485332   12.41897681123324
Si       -2.00474960325307    8.19839850031865   10.75663013266212
Cl       -3.60530205222468    3.50761943638672   13.22921850260870
Au       -1.84775576309262    4.71248096780251   12.44568073498224
P        -0.11853988173288    5.90531538145572   11.61369117223736

