90
CSD_code = BOLDUC | q = 0 | S = 0 | Stoichiometry = C45H39ClN2NiP2 | MND = 4
Ni        3.66207940458255   11.58283534031629    1.56130063018413
Cl        5.57410088569219   12.48475778953927    1.61449525857430
N         1.84009526653472   10.99382521460809    1.11918072320858
N         3.75089505062997   10.85955685664866    3.39484338426902
P         3.77359124664880   12.38855059084658   -0.38521775960737
P         3.37470753814974    9.35588603122367    2.97316060679156
C         1.03481561526754   10.31468288559884    1.95556876459615
C         1.59679030363524    9.32703143991467    2.80755761270640
C         0.80751774905132    8.49194297290684    3.58642350210779
H         1.27857948395703    7.74082050903698    4.20620874821038
C        -0.56711514795429    8.60686519987452    3.56230260513451
H        -1.18367533220878    7.94693099876245    4.15277378976678
C        -1.13982542238448    9.61356518618297    2.79254559208306
H        -2.21270214581958    9.74834241719584    2.80667105291671
C        -0.37264103956079   10.45417898516560    2.02239494466432
H        -0.86354836560558   11.24759944781719    1.47979464980183
C         2.14413478230437   11.88993176501148   -1.10319928747473
H         1.77960827118871   12.57323585508237   -1.87065614991428
H         2.22389706412601   10.88120445083678   -1.51291956760609
C         1.21431848853913   11.84233108685203    0.12032977439487
H         0.26481238327738   11.39112421781150   -0.20405542809449
C         0.95552341699273   13.25568355969319    0.60711724367510
C         0.17430569665782   14.12017563070978   -0.15025898791386
H        -0.28060909192491   13.76691727794638   -1.06587446033301
C        -0.02703776625265   15.42545747865262    0.25728135439748
H        -0.63031722794466   16.08938613651939   -0.34473117701430
C         0.53871329250622   15.88007010407857    1.43663202132734
H         0.37766562742378   16.89891752206185    1.75637148318630
C         1.30621093564166   15.02262447587987    2.20417950097225
H         1.74518886683515   15.37091345040744    3.12760564059414
C         1.51733101350333   13.71920568427553    1.78973703996639
H         2.12854173185788   13.04850327031101    2.40751904761950
C         3.78039277997506   14.19088765424473   -0.64436290954590
C         3.96075583591688   15.08695229662314    0.39941482374949
H         4.15159510427742   14.71250342135860    1.39449413547746
C         3.90999906246311   16.44865087996468    0.16011615543277
H         4.04799996516302   17.14163628368611    0.97658290430084
C         3.68285324148224   16.92194184594761   -1.12020745235008
H         3.63862438193992   17.98502839712652   -1.30572968101147
C         3.52182606728858   16.03038961343566   -2.16906045878120
H         3.35832561504761   16.39783433031259   -3.17182959772370
C         3.57249568716679   14.66996898086718   -1.93443502828192
H         3.46190515811912   13.97331165487704   -2.75521401666590
C         5.03272767565497   11.86887436349861   -1.58508557562248
C         6.22370622816468   12.59079742248920   -1.63578990340152
H         6.36033409796872   13.43035128848016   -0.96967737412058
C         7.22226963689936   12.22624088342269   -2.51801146453998
H         8.14257473885460   12.79043153690426   -2.54971783792298
C         7.04390308398897   11.14082020329931   -3.36115437909689
H         7.82239920694477   10.85900655583452   -4.05490738199051
C         5.86660846354023   10.41472153770024   -3.30824900058424
H         5.72503278754840    9.56577251822952   -3.96156677149025
C         4.86781177294086   10.76880105253309   -2.41842885180743
H         3.96488105515112   10.17823218548708   -2.37352521158394
C         4.13956395351532    8.77540448773720    1.41559238817316
C         3.41401824290526    7.95864732972178    0.55397523344085
H         2.40820557561718    7.66615967034873    0.82650425917184
C         3.98490018984916    7.53180775077296   -0.63070116326610
H         3.42512318604902    6.89275060274790   -1.29906226601704
C         5.27330413339298    7.92300771160176   -0.96132283263607
H         5.71714059311740    7.58738231490705   -1.88706149847338
C         5.99445948397893    8.74476986797680   -0.11007575046969
H         6.99455011851461    9.05519908909778   -0.37435290825392
C         5.43329131913240    9.17172014489892    1.08076126823571
H         6.00545441604882    9.79290181843486    1.75865805976011
C         3.79334264166956    8.12917165123737    4.24016653205567
C         4.38294976224802    6.90992039192994    3.93908723578081
H         4.60333010038246    6.65684603516772    2.91084235842290
C         4.68592833399861    6.02684635083165    4.96126544087593
H         5.14380602041936    5.07589161784259    4.73090424894983
C         4.40574389656015    6.36143072074474    6.27577582896405
H         4.64800681219356    5.67058664674509    7.06978244808012
C         3.81671093520862    7.58052098052951    6.57592725530785
H         3.59978641224473    7.83965056981999    7.60157206959769
C         3.50922075429929    8.46469415127412    5.56012257692910
H         3.04975665572837    9.42063964558132    5.77319851180150
C         4.73992053391692   11.23787363299460    4.29835746956797
C         4.62656511281797   12.49591624019447    4.89648534744531
H         3.79996199152913   13.13230508483403    4.61174868260687
C         5.55530563753591   12.92038779060373    5.82057750060099
H         5.45121593323004   13.89866459679991    6.26897526516560
C         6.62457522897096   12.11068195439704    6.18983488432629
C         6.74427858205731   10.86766317627220    5.58538205005581
H         7.57512937229099   10.22455419442283    5.84170286667695
C         5.82535639616568   10.43826204796748    4.64859890353500
H         5.95188718617032    9.47553077330576    4.16646020774759
C         7.63547519070569   12.58954106766918    7.18828683082062
H         8.19773622311322   11.75592522555531    7.60287538523372
H         7.15071781748970   13.12661304281496    8.00160393287043
H         8.34030703508154   13.27132288412964    6.71071410129481

