75
CSD_code = BOLDOW | q = 0 | S = 0 | Stoichiometry = C38H32ClNNiP2 | MND = 4
Ni        3.67872815752258   12.33513633212601    0.44327354337845
Cl        5.37235397076208   11.32249955714801    1.13198894464734
N         2.21100624472311   13.36587725284777   -0.22551212597476
P         4.48347150282023   14.17455999676990    1.12614937115005
P         2.38164729753517   10.60771705427208    0.24789811908288
C         2.12102521817175   14.69702940353507   -0.03488319931415
C         3.16736835551222   15.32993667620737    0.68628495357112
C         3.14653042643986   16.67474549801718    1.00942887225909
H         3.96586832532841   17.10073009540484    1.57280766912375
C         2.09010552230371   17.46258081875395    0.59364310155435
H         2.06163448542749   18.51504830232600    0.83003551058698
C         1.06650077657043   16.87701122768886   -0.14282582909267
H         0.23983560564454   17.48833433016589   -0.47820812542759
C         1.06891866385723   15.53699512811311   -0.45678618523790
H         0.24034782799555   15.13788360808712   -1.02344845649183
C         1.37626000752985   12.64342257824682   -1.15288171997401
H         0.53019674566878   13.25465958706671   -1.48993810210892
C         0.84544767718680   11.39307661817183   -0.42194888420262
H         0.29572588476986   10.72671945445179   -1.08720377026041
H         0.20173090366074   11.69596778374503    0.40740778795893
C         2.14391710188414   12.16105882899124   -2.37498329253777
C         1.44718656067867   11.58896585608657   -3.43377157756870
H         0.36607182913818   11.56445507432703   -3.41050805884335
C         2.12066095847377   11.04940116199485   -4.51298063965780
H         1.56456992323755   10.60029917009505   -5.32295226502357
C         3.50459368252009   11.08251547333255   -4.55597156752388
H         4.03108425025677   10.65619590180581   -5.39678760002646
C         4.20713958258506   11.67059159839892   -3.52021359014814
H         5.28596725763826   11.71115985529178   -3.54953618892893
C         3.53114284587605   12.20508869687752   -2.43663108526257
H         4.11598132499087   12.68689708036879   -1.63821927864763
C         4.55623784731823   14.22374333398201    2.93963311515708
C         3.84610834273834   13.24373957514388    3.62541540037709
H         3.35770833663491   12.45340283841499    3.05717338206534
C         3.79174884396666   13.26044233590052    5.00572813330960
H         3.24733747806445   12.49214469658616    5.53538812328578
C         4.44615999762130   14.26104882989824    5.70643680529570
H         4.41006485955054   14.27636623741275    6.78597302667653
C         5.15446231901927   15.23927334249138    5.02642290950112
H         5.66704668816372   16.01468415862718    5.57732785378726
C         5.21163390910561   15.22665172311777    3.64445608852850
H         5.77315866352028   15.98325144254914    3.11392421907292
C         6.05414287932222   14.89569533494430    0.59625553351568
C         7.23586848984371   14.42644504999496    1.16567420430023
H         7.18958564860103   13.66440716926790    1.93124497689888
C         8.45055762337978   14.92820349749916    0.73888621200130
H         9.36718280264938   14.56808023575022    1.18254104538881
C         8.49390501898111   15.88832500635661   -0.26048926344705
H         9.44467276347787   16.28059979894523   -0.59085381409931
C         7.32048218871103   16.33944977472325   -0.84313803458001
H         7.35647367447379   17.08035711362871   -1.62874348935439
C         6.10061643246486   15.84023160084055   -0.42383250694087
H         5.18051474160352   16.18235442153277   -0.87788100368020
C         1.81128351332283    9.75240384728257    1.74553687185086
C         2.04692019239197    8.40186405902617    1.97556613467669
H         2.54553630843489    7.80715064880950    1.22377346940306
C         1.64560253943175    7.82426216629805    3.16732634906342
H         1.82496754236074    6.77302859739123    3.33924663869788
C         1.02372203259972    8.58838449988244    4.14051848357330
H         0.71427639620234    8.13300475889485    5.06963779553117
C         0.81049676414173    9.94134306699793    3.92719210634209
H         0.33941135064123   10.54310554947839    4.69098076837162
C         1.20817361021642   10.52210754037832    2.73880051845083
H         1.06076967797423   11.58317263762520    2.57663401162406
C         2.71011612158308    9.25775085663940   -0.92442977675385
C         1.69889820154970    8.39769421029198   -1.34170842450739
H         0.70483428212122    8.48699934690934   -0.92416091777569
C         1.96928361182817    7.41929479779253   -2.27918969952680
H         1.18219952194539    6.75438426935959   -2.60474165182654
C         3.24708826262316    7.28923827508230   -2.80092182777696
H         3.45108962591936    6.52646359178197   -3.53801524913250
C         4.26011767830794    8.12920419647148   -2.37189634093324
H         5.25836176656249    8.02081169100051   -2.76912345156115
C         3.99398944828011    9.11180473004118   -1.43517747968798
H         4.77877308563427    9.77016914422655   -1.08771757621674

