79
CSD_code = BOMQIG | q = 0 | S = 0 | Stoichiometry = C32H38Cl2O4P2Pd | MND = 4
Pd        3.86277251077796   14.50215254894708    7.49459785592623
Cl        1.92509390286672   13.98855052435956    8.59593092085663
P         3.60070091910764   12.65305236537485    6.20370859366031
O         1.90321459171681    9.02010579449271    6.70990908902691
O         5.88705597078845    9.80473945622495    4.42898885693065
C         1.88535447579621   12.12702454256129    5.84549024452755
H         1.42640932227675   11.78001825910697    6.76903929001693
H         1.33384446849968   13.00033590422192    5.49204451893655
H         1.86378839633273   11.34545069789843    5.08869433378152
C         4.36405591123282   12.66172451179192    4.54130829538488
H         5.44649738391611   12.67346293759375    4.65236455400286
H         4.04829463502118   11.79561745898747    3.96362758894207
H         4.05850587542196   13.57822086587166    4.03380219154099
C         4.39985828336585   11.28544336117521    7.12191176877856
C         5.00911398544673   11.66938377826928    8.31909727612470
H         4.97215551517899   12.72503077303108    8.63308476845011
C         5.65925645190691   10.75134670384533    9.12136912610420
H         6.12363321529055   11.06941624183702   10.04327076534896
C         5.71056203497007    9.42298496508059    8.73542857420636
H         6.21504899566382    8.69489116943877    9.35372576128084
C         5.11247613510463    9.02968876979048    7.55319358172468
H         5.14887715016433    7.99408525031941    7.24642476731116
C         4.45623712364571    9.94381803848221    6.73723589720913
C         3.84681557740061    9.42467825463038    5.49060384739747
C         2.53968839126783    8.92959476129440    5.51045568417106
C         1.98355342141116    8.40302242233506    4.34846949423010
H         0.97394053338787    8.02615587753834    4.33592927934539
C         2.74246353176961    8.35494707116949    3.19352641738063
H         2.30832633215263    7.94549420924029    2.29369290926660
C         4.04778886397912    8.81037912334600    3.16668281479620
H         4.61372411581169    8.74403781931863    2.25188821400032
C         4.61197748554455    9.33821012340822    4.32432455504117
C         0.56402120127070    8.60099101503141    6.79757623040104
H         0.26546624398769    8.79247905921232    7.82692404516644
H        -0.08255882311278    9.17173206328949    6.12288708679423
H         0.46003903237525    7.53216212130173    6.58394668681955
C         6.70463554499479    9.79595759235889    3.28525282358975
H         7.65321728729865   10.22674881189380    3.60131064119381
H         6.87442431717977    8.77868325501444    2.91761767528281
H         6.28169194461224   10.40757139877503    2.48137168722540
Cl        5.80038921545137   15.01469119704767    6.39281160157875
P         4.12493037325583   16.35085521020584    8.78494469884201
O         5.82249941920739   19.98387185999883    8.27880277912360
O         1.83868388497463   19.19910229526664   10.55973066218257
C         5.84028823973756   16.87680986172522    9.14319407636381
H         6.29940017573513   17.22344751967443    8.21958751611206
H         6.39163830873599   16.00353846304428    9.49699013569076
H         5.86187073812966   17.65862222219792    9.89973997024998
C         3.36155523565905   16.34232634538201   10.44733794014991
H         2.27911577846202   16.33072531336638   10.33625659132815
H         3.67742988710019   17.20841549428064   11.02498625792643
H         3.66697498900088   15.42580364811523   10.95487376751324
C         3.32589188028061   17.71852237481485    7.86671754169503
C         2.71670709290146   17.33464781330644    6.66947914608484
H         2.75366080712910   16.27899659480009    6.35548809382276
C         2.06658252238609   18.25272641258700    5.86724249876680
H         1.60229959011309   17.93474011312786    4.94526284056216
C         2.01524264560672   19.58106389346677    6.25326893242256
H         1.51082846309229   20.30921483238245    5.63497287609048
C         2.61329548192608   19.97430031696170    7.43553912091531
H         2.57687288752133   21.00988311667965    7.74237928744317
C         3.26950515763465   19.06012348159453    8.25146532374753
C         3.87889798903384   19.57925836580218    9.49811206078852
C         5.18599093160075   20.07443024550872    9.47823647165418
C         5.74207282899304   20.60111591878569   10.64019634607625
H         6.75165017193557   20.97807816944528   10.65271248330394
C         4.98316208237496   20.64918533173730   11.79513976100360
H         5.41726791287133   21.05874021139972   12.69494219958461
C         3.67787975743792   20.19363249955323   11.82201400751209
H         3.11194754319880   20.25995673317610   12.73681139912324
C         3.11373256073457   19.66571595762226   10.66439059808889
C         7.16158715940495   20.40331519552732    8.19108136974422
H         7.46016453588011   20.21184348228224    7.16173816995152
H         7.80833759564809   19.83278027650167    8.86578259769999
H         7.26530224888030   21.47218237567999    8.40464851605140
C         1.02113024510210   19.20778823251881   11.70348441400251
H         0.07257703903600   18.77691760285959   11.38744949214881
H         0.85126284179954   20.22504221159348   12.07113670092544
H         1.44415152621473   18.59619891210161   12.50734304155006

