35
CSD_code = BOSCAO | q = 0 | S = 0 | Stoichiometry = C13H13ClMoN4O3 | MND = 6
Mo        4.73442294746641    4.35905252530563    7.08289105916102
Cl        7.18327324369958    4.40202491597125    7.26576033486125
O         4.70702103430204    2.72805241607859    6.90795345660208
O         3.29284439714886    5.00993472314079    6.56715250012978
O         4.65304248801124    4.54069465105362    8.90578247565899
N         5.32255829335957    6.50552568317231    7.27373051399034
N         5.39434547280822    4.94174280071808    5.10559405735550
N         5.75103934441812    6.99886526791691    6.09968757230567
H         6.07779085232669    7.96162097331104    6.01887619518501
C         4.83835290058073    6.81238794947313    9.59485564279311
C         4.53943222410096    5.44278430758130    9.84118156851393
C         4.13629466051120    5.06633041356847   11.13380302405034
H         3.91209086199584    4.02257275138577   11.30191686909661
C         4.02989842564101    5.99660172817617   12.14238650931764
H         3.71556118391074    5.68495960915432   13.12714884323707
C         4.32994664451548    7.33632883204729   11.90394718381381
H         4.24857329209050    8.05871550350983   12.70099168637054
C         4.73107683551055    7.73163408371778   10.64982406841283
H         4.96541888174141    8.76921067737402   10.45854417599687
C         5.26497304454122    7.26592379499116    8.30604979907573
H         5.56135459962346    8.31654037418356    8.21912302287502
C         5.79887698303789    6.22070733091015    4.99491163485739
C         6.27051160859140    6.08119837848966    2.77884186333237
C         6.78626409058076    6.73979026256185    1.54779254374955
H         7.03158774920263    7.77535776034366    1.75979386155625
H         6.04015188184480    6.69444005411596    0.75715901717276
H         7.67677099669403    6.22137205970812    1.19731760095413
C         5.37977602101773    4.20846714125846    3.97964638254901
C         4.85530166848295    2.82624881317235    4.06404676156086
H         3.83962429477360    2.85827603346000    4.46968127198238
H         5.44470646021415    2.25412633505868    4.78536974237176
H         4.86623696013268    2.33563106624465    3.09484462163457
N         6.22643747651474    6.80910850825041    3.88663656592792
C         5.83266896512415    4.75805752020053    2.78676113388392
H         5.84057321548474    4.17081475439450    1.88369643966368

