51
CSD_code = BOSFEX | q = 0 | S = 0 | Stoichiometry = C22H23I2N3Pd | MND = 4
Pd        2.69940206714901    2.93182818923792    2.04951519341526
I         3.52820994062150    3.84723151190088   -0.26917231132933
I         1.61849653974816    1.88905540238383    4.18008956042401
N         3.12072330125026    0.30121961100699    0.72220043846383
N         4.91328256084081   -0.58302894717264    1.62377501030384
N         1.86062419488043    4.70196899737554    2.47297199165183
C         3.53872056556699    1.19749803310223    1.66723261029692
C         4.65607602680411    0.63271001475218    2.24369164999522
C         3.96784885215358   -0.77523676301209    0.68243943405519
C         3.75548385274283   -1.79639983843285   -0.24389446414210
H         4.43654746853728   -2.63082880665530   -0.29223899402566
C         2.67279351161512   -1.71510514946291   -1.08971368235743
C         1.80020074686400   -0.60326839438632   -0.98793574684478
H         0.94282908722015   -0.54370993246251   -1.63792738034596
C         2.03690335493240    0.38442975026824   -0.08715924632533
H         1.40983130294827    1.26548057393394    0.04465591134747
C         2.39074879798234   -2.77185075130363   -2.10575604619969
H         2.38472359256286   -2.33743140414685   -3.10452197647731
H         1.40844011703283   -3.20883793053986   -1.93066571326281
H         3.13674985988684   -3.56100491433197   -2.07144048595653
C         6.02039548016864   -1.47797161200542    1.85842197203332
H         6.77694239931378   -0.93030025660222    2.42387039232342
H         6.45001661191568   -1.75683361160944    0.89031788576830
C         5.58769289671017   -2.73213990274344    2.61489560160395
H         5.11705459450859   -2.47077358838256    3.55965110842786
H         6.45427298816265   -3.35540176374373    2.81748428097702
H         4.87228499306080   -3.30755254813544    2.03264419113765
C         5.36049907263174    1.23482479703728    3.36631776112999
C         5.85641268545316    0.50619123252029    4.44566400875750
H         5.77231356798034   -0.56887304666503    4.46428973821309
C         6.40684487152747    1.15060943230160    5.53673452274764
H         6.77384895882479    0.56371859992809    6.36658393777010
C         6.47533639130443    2.53596939435850    5.59642972834626
C         5.97913528764271    3.26619467281942    4.52161812056437
H         6.03190290088890    4.34626603120971    4.54705718468935
C         5.42610646535477    2.63469715434571    3.42545226468181
H         5.09150153708368    3.23635724550275    2.57160428721149
C         7.08409619659507    3.22699279846422    6.77621674832076
H         6.97659786499047    2.62557687224338    7.67569878733042
H         6.61874293043646    4.19597614673934    6.94138042106640
H         8.14883834724258    3.39007039723501    6.60294338747965
C         2.43490268889998    5.51089482142929    3.35727377954152
H         3.36003955806548    5.15434456644820    3.81095568570969
C         1.88892756604551    6.73482489515578    3.69862710683269
H         2.38574137511083    7.36640336358391    4.41805372367596
C         0.69825949620722    7.12380556405880    3.10360650004304
H         0.24460282388678    8.07193012824507    3.34933614327012
C         0.10023325875710    6.27008364395902    2.18957535004702
H        -0.82793919616391    6.53019907291356    1.70592588920171
C         0.71821721826664    5.06698334105468    1.90065805383560
H         0.28744242777873    4.36721290629880    1.18406568457040

