60
CSD_code = BOTHIE | q = 0 | S = 0 | Stoichiometry = C20H33ClN3O2Rh | MND = 6
Rh        3.71923527432201    4.40415807940067    4.43772403266957
Cl        3.07937004180110    3.48852792938025    2.43448441661284
O         3.35553181156323    8.81260404129410    2.06986839423287
O         1.19601747302401    9.43831055818083    1.86106187818724
N         6.02821605134162    5.36044417782622    2.81664927155802
N         6.45930275382768    6.18419667618277    1.88808633225391
N         5.47565581580349    7.01475806528013    1.67346473242347
C         4.77418393953977    5.63438554907196    3.25170218377599
C         4.41370335330275    6.73984705873827    2.46672554984433
C         3.07291799268629    7.40678237043383    2.32405253743548
C         2.24432035388482    7.26032369470844    3.59668547571255
H         2.70489413809920    7.81788967847688    4.40943900776740
H         2.19397843245182    6.19675856047290    3.86423841011144
H         1.24010096281835    7.63851899663280    3.42892856280100
C         2.34478924507435    6.75799150888714    1.14210057052962
H         1.34570081846655    7.17239346593904    1.04520647687443
H         2.27616248394032    5.68792642956988    1.32855227508699
H         2.88471542121455    6.91578778985851    0.21070982076446
C         2.37007958109230    9.68767163603023    1.86402687523379
C         2.95113492071056   11.06136231472050    1.61656413922115
H         3.72189969948145   11.27891364411134    2.35067091089394
H         2.15931398850302   11.80181481881496    1.66889747365220
H         3.39929563455882   11.08519902973993    0.62532263780870
C         6.82103721177606    4.20771561509226    3.15127073685715
H         6.45418416217682    3.81907092314240    4.10615332536389
H         7.86586959643576    4.51714291177856    3.23881437409089
C         6.66150355360656    3.12878287489370    2.07742928542366
H         5.59504490354338    2.92519853710771    1.95377148130957
H         7.05221662321800    3.50284689393329    1.12895757770573
C         7.38109076664503    1.84311561655247    2.47003803515562
H         8.44680462799104    2.04398084559391    2.60829875880440
H         6.98117153827523    1.48661977293151    3.42160274515694
C         7.19553744296936    0.76400124964392    1.41126470639743
H         7.61046535077240    1.08698675859571    0.45906123359869
H         6.13790154804450    0.55592392918972    1.27035986644414
H         7.69302969835821   -0.15594273592747    1.70916040732032
C         5.66708623326252    8.05160321134040    0.69999646126244
H         5.68426171656310    9.02778089443949    1.18371689744426
H         4.86444779655477    8.03650697352300   -0.03541901444074
H         6.62085156456211    7.86220853915994    0.21069972898536
C         3.79325589986081    5.51990283760103    6.24788632380206
H         3.93569086362292    6.57735876063483    6.03359631111723
C         4.92741119682137    4.71025549228435    6.14741458999581
H         5.86662578112514    5.21306714319892    5.91122167248254
C         5.12751021284536    3.42108737464211    6.91402930759596
H         5.35235045178561    3.65608825738028    7.96103114765465
H         6.00647654150060    2.91283381139439    6.50690407750594
C         3.91782689407772    2.47109755106082    6.83495425937162
H         4.27274370056065    1.44062350573852    6.90526397178157
H         3.24793514775781    2.63915702244774    7.67958765816590
C         3.13917202519785    2.63909742380755    5.54890288526814
H         3.22113572715143    1.80785648462942    4.84817272764384
C         2.05149535746619    3.47963782641122    5.42533646081947
H         1.31354393022093    3.25131216753913    4.65542845859781
C         1.53423634159249    4.38363577415042    6.52034655691567
H         1.01998202048143    3.77760678790268    7.27466825078374
H         0.79008167433825    5.05472985253578    6.08449404183132
C         2.64029760672727    5.22637114342929    7.18494446735453
H         2.20622732785123    6.17056259166198    7.52031642745413
H         3.02487677678217    4.71790930680233    8.07096183151818

