51
CSD_code = BUJMIE | q = 0 | S = 0 | Stoichiometry = C26H20Cl2N2Zn | MND = 4
Zn        3.23589490943988   13.94193117156278    4.12195742650577
Cl        1.44653942193152   15.02623884461069    3.35139750918318
Cl        5.37173049641460   14.36044242191801    3.95638808430436
N         2.67209471151334   11.89720977515073    3.77490630263816
N         2.55730060301688   13.35835732804540    6.07613944536486
C        -0.81524989580280    9.85022317081097    6.51826264991612
C         0.25607601042910   10.63383333613320    6.07403150559799
C        -0.86148138881061   11.25773506827266    8.48063617520586
H        -1.30345950947236   11.51494203338222    9.43196657782231
C         1.81641857148741   12.32047816049284    5.96151532034909
C         0.88381282028088   10.45965911322802    4.81749802954166
C         0.20303725397788   12.04706718434294    8.01130543392458
H         0.53652055928872   12.89031372305369    8.59591810668669
C        -0.65633282975796    8.67275734338041    4.41532900326639
H        -1.01695868908174    7.90218801135758    3.74998401284557
C         3.04774716449851   16.28423416358441    8.20274971077703
H         3.08053389866099   17.35867436499291    8.10000200490326
C         0.78284541539722   11.72468085256593    6.80594629513151
C        -1.25212691370691    8.83190762308011    5.64269364297074
H        -2.06944753207692    8.19150154945274    5.93974559497893
C         1.87967222487544   11.52399447684889    4.70879049213823
C         2.80846921823032   15.50408159616169    7.09296620347131
H         2.64561248793045   15.95341246645859    6.12313234320362
C         2.73755262773368   14.11448269729579    7.21538062771753
C         3.26561940248460    9.83238624366352    2.64321672726858
H         3.23967236898585    9.29578175179121    3.58079660818038
C         3.65640821456002    9.19411805203283    1.48347289790048
H         3.90257244840709    8.14238622882797    1.51657765849502
C         3.74332755568609    9.88221103147014    0.27835905681717
C         2.97050209930617   11.19824145044036    2.62414134420513
C         0.40761461370627    9.48029057170377    3.97658757814138
H         0.82117203092535    9.32461137829936    2.99231751730538
C         3.09904868623050   11.90477205499397    1.42576764150782
H         2.88633343040236   12.96484501248260    1.41747725553437
C         2.96905842664438   13.52895536902887    8.46323519635383
H         2.98825636460493   12.45201536075591    8.54988860414918
C         3.26673575294825   15.70965821267598    9.45298631850479
C         3.45873670589151   11.24649348609222    0.27079881605114
H         3.53615951346331   11.79847176985674   -0.65409846904243
C         3.23994713166179   14.32312228133226    9.55875967228076
H         3.43725237403391   13.85719297864018   10.51367224451668
C        -1.35929903285589   10.18829667167864    7.77689345610577
H        -2.18080800678532    9.60950845399888    8.17248807130958
C         3.56493318225476   16.56784909299498   10.64116902610522
H         4.61352176909600   16.86676940652547   10.62656669853917
H         3.37812243277923   16.03200509554842   11.56873406345183
H         2.96170083573115   17.47297336569977   10.62466122501880
C         4.16780636254960    9.19220248938233   -0.97898197776173
H         3.52391700555082    9.47671220678395   -1.80895103605656
H         4.13998648522806    8.11173766312864   -0.86268403965389
H         5.18640021015031    9.48344584400292   -1.23569465369858

