51
CSD_code = BUNLOM | q = 0 | S = 0 | Stoichiometry = C21H23Cl2MnN4 | MND = 6
Mn        3.98159705184271   11.47276702172683    2.21831263561350
Cl        2.65489809285886    9.73322241811579    2.13157815517297
Cl        3.46238103538993   12.32804755320030    0.26202708452500
C         1.80549206145597   13.45726276228894    2.67588629407430
H         2.10728952217255   13.82982186568624    1.70482439264272
C         0.69723736902735   13.97722076897364    3.31809011337436
H         0.13182649639224   14.76694539833130    2.85001209191869
C         0.32984924969184   13.46557972891232    4.55247878157876
H        -0.53432909987017   13.83837308449558    5.07989918065232
C         1.11366155611368   12.45810059069932    5.09576944922795
H         0.87897091162306   12.02950845606275    6.05834453255284
C         2.20720787537601   11.98734411407433    4.39075745295947
N         2.55159953976395   12.46860596494478    3.18185990210844
C         5.37189578757131    9.15713419931828    0.74376150383871
H         4.51975841088733    8.55926760134854    1.03929986243144
C         6.34813196933212    8.63873273067932   -0.08671778113187
H         6.26408654432108    7.62350692631924   -0.44012732287777
C         7.41559026272103    9.44083944000536   -0.45890177249958
H         8.19096587175635    9.06986084127567   -1.11150022202727
C         7.45771464267705   10.73939235935331    0.02489262950955
H         8.26099100364266   11.40959072010473   -0.23966186794639
C         6.43806120641963   11.18230826978784    0.84752043940441
N         5.40540027294310   10.40587337303638    1.21279416231628
C         6.35984686563021   12.56804238009145    1.43026009625428
H         7.34795471457463   12.93013505031961    1.74116009187863
H         5.95965202519699   13.23875964090814    0.65288015741693
N         5.40524546778562   12.50760176321793    2.51682480436288
C         5.98033537383915   12.80434574120820    3.80416478456080
H         6.08948366229751   13.88811021950064    3.96263088367722
H         6.98841691720549   12.35924727703006    3.87016051619430
C         5.07019000082948   12.20851123404372    4.88229421673728
H         5.62928233369461   11.98133517398917    5.79706700912921
H         4.29771615429800   12.93912013304809    5.12875595853835
N         4.40791540935000   11.00546903669608    4.34990219812566
C         3.07762036798986   10.89040510935121    4.94506070448799
H         3.11474664144928   10.94152539319644    6.04277125652730
H         2.64434091728937    9.93085553997587    4.64649554520361
C         5.21255102539921    9.78232685398171    4.52755283588158
H         6.16837992814469    9.94524183518313    4.01997459108237
H         4.67898737315293    8.97899342166978    4.00953643956354
C         5.45895640991183    9.39534777231237    5.96450508392344
C         6.61560332348261    9.80337536738490    6.62020177178078
H         7.36726789558350   10.36582824087765    6.08293870163305
C         6.82889777352358    9.47716855188444    7.94858281912029
H         7.73262459590770    9.80191918036575    8.44298795889911
C         5.88917722803718    8.73183616578942    8.63900635110725
H         6.05447538618415    8.47662429241928    9.67498432744517
C         4.74384770078874    8.30178244278720    7.99025139234355
H         4.01535692756928    7.70471119965479    8.51847205630879
C         4.53193051591589    8.62926278029513    6.66288461828388
H         3.64531943085796    8.27371201407687    6.15889313211456

