44
CSD_code = BUQCEW | q = 1 | S = 0 | Stoichiometry = C12H27ClNPdS2(1+) | MND = 4
Pd        3.61807869824017    5.09562760298936    4.44071117923084
Cl        5.64055448727454    5.15915294090607    3.48061373329944
S         3.07473333915002    7.11209095958998    3.48257045264260
S         3.95116468766564    3.04860361526316    5.48877574861876
N         1.82922950708556    5.31632689926592    5.60971612322759
H         2.13796198268530    5.94691011388029    6.36045502259803
C         0.82472643365955    6.01184941711463    4.80078026661869
H        -0.07657390799632    6.24140332043050    5.38826923505338
H         0.52737892861299    5.35314903990120    3.97588153141415
C         1.40935583770911    7.31169423846652    4.25653860519390
H         1.56712196928630    8.03175967612463    5.06121417760877
H         0.74726965387531    7.75903390034731    3.51717767109047
C         1.40840508820531    4.04912218311694    6.21363733520052
H         0.90941798419467    3.44374837658245    5.45098023140121
H         0.69459793202235    4.21249991090150    7.03353376471911
C         2.63111528431578    3.31441936513012    6.75158367402947
H         2.35836726820093    2.34094842213026    7.15772055013599
H         3.11934170459174    3.89571969328016    7.53765610250255
C         2.65503896860117    6.35770042163142    1.87167858036277
H         3.58585571667482    5.88694837399703    1.54185608239267
H         1.89205306838339    5.59102574535833    2.03557426893414
C         2.19933539058741    7.39196836637303    0.84375826011514
H         1.36402381973474    7.96994871363678    1.25592064796073
C         3.34304201620654    8.34357641400154    0.51047545397943
H         3.70683065799912    8.84520922288895    1.40453415313450
H         3.01063917503949    9.10112891626396   -0.19299284355653
H         4.16968297322481    7.79889519965960    0.06124462303667
C         1.71423122383856    6.66286256070372   -0.40797042586465
H         2.51550408891994    6.06316976208474   -0.83216818436760
H         1.39595118639106    7.38285743300145   -1.15586781460866
H         0.87186203560685    6.01196929880064   -0.18375906185545
C         3.13148061914471    1.84997369729107    4.37643908337843
H         3.92764494292576    1.18018136173934    4.04971984869731
H         2.44157888748993    1.28270216308566    5.00085241806456
C         2.42383398997511    2.44486538342963    3.15313512787218
H         1.92484078518916    3.39201132295218    3.44063063316378
C         3.42752894544368    2.75130938395573    2.04165604051683
H         4.18920005485102    3.45823562427748    2.38903288117294
H         2.91734584362452    3.17318631496522    1.17920962804951
H         3.92263645558391    1.83763854179244    1.72239854908485
C         1.36393058473973    1.45933311272211    2.66155795962141
H         1.82857041551747    0.51368611601845    2.39554543596824
H         0.86721367500814    1.84993724295896    1.77768909331909
H         0.60939760046036    1.26801963088199    3.42193415684508

