46
CSD_code = BUTWUK | q = 0 | S = 0 | Stoichiometry = C14H26ClNNiOP2 | MND = 4
Ni        3.18445824920835    4.18854037509280    2.22059471582915
Cl        3.40037393361214    2.07109678882471    2.37217714249411
P         5.16821558538409    4.29107994772093    1.38023375308315
P         1.16149916491106    3.99463795006312    2.94301491405824
O         4.56607544227960    6.97883259185720    6.24339987568491
N         3.94955242983061    5.68867942559670    4.46950446354010
C         6.48011748057939    3.55879738828357    2.42843044797556
H         7.41048410926421    3.50158716491679    1.86509897124901
H         6.17521917857812    2.56136823315053    2.74003556961297
H         6.63055393548424    4.18195951945169    3.30903702956694
C         5.95923059537534    5.87569352933940    0.90349768581348
H         6.95351292583993    5.69271653330268    0.49883225623040
H         6.03329432269644    6.52362250547515    1.77480935111733
H         5.34825354899293    6.37884828014963    0.15710985575726
C         5.34087035871698    3.32604307814080   -0.16411017295674
H         4.68165473712397    3.74261747617061   -0.92442220468439
H         5.04872587212884    2.29552889492135    0.02907816171965
H         6.37192322237716    3.36245110456494   -0.51457235538264
C         1.01101579503883    3.17332877412893    4.57373192894598
H        -0.03660845181539    2.95901289909470    4.78071580594772
H         1.40408019077585    3.82886063393709    5.34943324685003
H         1.58094113223511    2.24598501645039    4.56114180822269
C         0.11913909532769    2.92094748708518    1.89136154661306
H         0.59487471296883    1.94613938571813    1.80178093702945
H         0.03032386785346    3.36236498479920    0.89988257965902
H        -0.87076765249539    2.81380170625458    2.33387820069319
C         0.06078128341038    5.44116756446333    3.18514488726046
H        -0.05651062768004    5.97036019139530    2.24204300607739
H         0.50889644328842    6.12439619256420    3.90380253301820
H        -0.91403575409730    5.11781983276433    3.54658134398561
C         3.07283829515996    6.07563947972767    2.28697217895880
C         3.51209350159563    6.61694044738495    3.50586968540334
C         3.50123215201629    7.98909799570770    3.71559272528862
C         3.05166750451746    8.82689221863173    2.70848998612810
C         2.61555701714680    8.30672219695191    1.50445243246624
C         2.62663740612835    6.93308448359848    1.29567320586111
C         4.42887361804210    5.89250607219358    5.72379513490043
C         4.78370515864280    4.58985457984388    6.41805059570017
H         3.84170065309097    8.38714081078808    4.65718272202283
H         3.04332265572093    9.89448125730428    2.87109342673781
H         2.28436323829787    6.53666545387142    0.34693600306025
H         2.26504220604401    8.96440564865276    0.72178496222064
H         3.88280198442423    4.71557635542380    4.14496901297959
H         3.90776912146442    3.94818014336561    6.48759513279007
H         5.55214406118261    4.06137230962574    5.85744539557734
H         5.15210629937509    4.80405509106631    7.41685011511857

