55
CSD_code = BUXJEK | q = 0 | S = 0 | Stoichiometry = C26H20Cl2N2O3PRe | MND = 6
Re        2.77649456042467    9.19888904891435    6.91064743361226
P         2.96495215790058    9.66872835422825    4.52138077783703
Cl        2.90794043881816   10.09276768885855    8.98641412627659
Cl        0.87587666541220   10.36840339360689    6.55668636966500
N         4.76390264310614    8.44614468059329    7.25341468787045
N         5.20578562458169    7.24981937927102    7.64825259061890
H         4.54702281468371    6.52720816544771    7.89888678798615
O         2.23102551628357    7.62742413154962    6.95729297852059
O         4.19767713646197   10.79691635252203    6.42349924379374
O         6.32747784051515   11.38642819048253    6.14265350516774
C         1.95044987728289    8.56657094523816    3.48657763284032
C         0.99829015570695    7.72144381585909    4.04005160843613
H         0.84237548564318    7.72016648187974    5.11169820348435
C         0.26088229624994    6.88545241473418    3.21852163195859
H        -0.48008444980308    6.22932999079327    3.64862352633679
C         0.47437995203971    6.88903090195437    1.85039516989291
H        -0.10048926950808    6.23524343327258    1.21198692473496
C         1.42837699697314    7.72988022718884    1.29708867564086
H         1.59574302628427    7.73053476283971    0.23046701086425
C         2.16663780757631    8.56730225282760    2.11053187885566
H         2.91224539045649    9.22728120593647    1.68749796896917
C         2.52765410695963   11.33412205103124    3.96357498263885
C         3.35841047969449   12.43326607610575    4.17823986881906
H         4.29291353333705   12.32542268836051    4.70709680328898
C         2.96377801630052   13.68667897106518    3.74441914611771
H         3.61144190209310   14.53423941150496    3.91314112484909
C         1.74425477121317   13.85908451389293    3.11127990446064
H         1.44139409502285   14.84114081758720    2.77924617009418
C         0.90537439496026   12.77272754246011    2.92110408391681
H        -0.05582569574899   12.90556342722727    2.44724536085806
C         1.28916496615960   11.51564880876190    3.34758202952149
H         0.62357458381230   10.67469582005152    3.21730631372871
C         4.63533602801925    9.24522420025522    3.94781150368497
C         5.05410375146965    7.95207462489007    4.26142359115330
H         4.35329614889590    7.28104578672854    4.74618550459408
C         6.34064533146989    7.54640394733927    3.96878858778490
H         6.66691135218913    6.54921634832649    4.22555619132126
C         7.21819170416703    8.43020823101819    3.35825459022061
H         8.23207435934644    8.12359774482352    3.14991719659882
C         6.79463084629298    9.70163321994696    3.01384939264653
H         7.47460671435700   10.38523730060516    2.52888146221606
C         5.50421494718559   10.11395288524973    3.30259433397960
H         5.18256025514093   11.10747197210325    3.03007216538893
C         5.79220296377437    9.23924894061765    7.02460200734143
C         6.99381186318359    8.52412517250349    7.26094094964959
C         8.35390457347275    8.82039842312727    7.15966860954781
H         8.66690370568886    9.80125545716751    6.84164361786024
C         9.24583719276765    7.82311785120993    7.47334729958987
H        10.30614375013659    8.01291021798156    7.40565428486224
C         8.81494734061946    6.55381652960079    7.88592810228436
H         9.55563599674532    5.80586342182823    8.12576316453966
C         7.47964529939649    6.23603786386751    7.99334775893435
H         7.15242552537952    5.25881027940516    8.31150350602710
C         6.56656439920712    7.23623970372029    7.67287271131283
C         5.47040813021332   10.60505393159490    6.49928894681580

