38
CSD_code = BUYWEZ | q = 0 | S = 0 | Stoichiometry = C17H13CdI2N3O2 | MND = 5
Cd        8.15391992026619    0.46226410367840   10.11840976733537
I         5.70233117126562    1.50254754513781   10.48657987518951
I        10.81319991715758    0.58045909192755   10.39524998309245
N         7.50193587532571   -1.97857270295469    9.67828000509676
C         7.53471241238562   -3.03344740156853   10.38940520069880
H         6.96145984987863   -3.91907542186405   10.08363274317043
O         7.61601397879003   -0.01797112076243    7.84137282133386
N         6.72059541436949   -1.95462831852571    8.57905130809799
H         6.06530883148022   -2.71962001319150    8.41915726036789
N         8.03663907427715   -0.93384136148306   12.33360131652292
C         5.84101675901837   -0.93919164448115    6.57244466371596
C         9.05854045452357   -0.17036176497128   14.36414851627173
H         9.18919928532833    0.64559341631348   15.05665217414391
C         9.72792867336061   -4.69579855553586   12.90116195532749
H        10.14206007523523   -5.68332155450935   13.03496003378109
C         4.41730535750061   -2.04985460513823    4.98324841346183
H         4.01745194739652   -2.96276574473521    4.56239154798209
C         5.46682227298792    0.29100176567064    6.02355323109925
H         5.88452137828490    1.19338920066089    6.44259821541084
C         4.03173481385162   -0.81911589417227    4.45456133297758
C         8.22931383282487   -0.00944698128406   13.24379890306447
H         7.69550622156304    0.92575205251091   13.10168255461108
C         8.88093257273476   -4.44956170731031   11.81804832533816
H         8.65675096246459   -5.25612595498684   11.13450200029344
C         6.80107926948848   -0.91469855820258    7.68864816872634
C         4.56762513795866    0.35501028182845    4.98558692166724
H         4.26270002405152    1.29914921206126    4.56499929237964
C         9.68768914704835   -1.37089375752144   14.54006188962577
H        10.34193482261403   -1.54759746858620   15.38139694608621
C         8.62597987129591   -2.13832525826538   12.49482357822092
C        10.02426675603940   -3.69154800709175   13.78114060611474
H        10.67825959538514   -3.86488741614334   14.62270604150009
C         5.30873109828938   -2.10965082530302    6.03461634228551
H         5.61228369100535   -3.08070976129976    6.39927704410350
C         8.35662712552200   -3.19411898122909   11.57359708907800
C         9.46180510876095   -2.41084779782601   13.61425029753449
O         3.15854409063752   -0.71703525670696    3.43287357117207
H         2.85487320956033   -1.58935283403422    3.15133006328468

