71
CSD_code = CACZUB | q = 0 | S = 0 | Stoichiometry = C36H30Cl2P2Pd | MND = 4
Pd        0.21216626196631    3.29626850901438   10.58703360360940
Cl        0.73222204617975    1.11006405970844   11.06265047459620
Cl       -0.34849668176313    5.47246886587843   10.11587104072172
P        -0.27843364500105    3.57963087373830   12.76649807721199
P         0.73058246372320    2.98625576349933    8.41700969791991
C        -1.12627985614634    5.05062415461179   13.40922894322497
C        -0.43316810507297    6.25699828846268   13.34680241344365
C        -1.02894031448940    7.42049914173347   13.79111015171518
C        -2.31983464757023    7.38790603373659   14.29618035393590
C        -3.01446996969254    6.19146056148045   14.35051705240850
C        -2.42425776597525    5.02192065921962   13.90353825955304
C         1.22756773561469    3.55916391007734   13.77905321595734
C         1.21124056302139    3.82555155969141   15.14542298945613
C         2.39499971652667    3.81820636223467   15.85974939737346
C         3.59603096117421    3.56288537901100   15.21581489898105
C         3.61908773453862    3.32555672277819   13.85115557765233
C         2.43762929062926    3.32679922180667   13.13155218324231
C        -1.34792177608065    2.20478228563198   13.27921256503265
C        -1.28609049724046    1.54239007181561   14.49625606039879
C        -2.16301022667806    0.50122814911142   14.75153355416619
C        -3.09678501638765    0.12353560994373   13.80159951040707
C        -3.15364893060330    0.77730941397876   12.57965762522976
C        -2.27747751737794    1.81144103820138   12.31680222174728
C         1.73929924632885    4.39028376155603    7.86119274847700
C         1.66677235486589    4.98657528102283    6.61100252028368
C         2.49473707683748    6.05702599433855    6.31654999575090
C         3.39059966487140    6.52911502506770    7.26081253308044
C         3.45928448348732    5.93981357946245    8.51451232960069
C         2.63211745563218    4.87615383737203    8.81586767707952
C        -0.75854878501342    2.90557111434979    7.38420099220942
C        -0.71883699176004    2.55506715431076    6.03739696039341
C        -1.89376802693514    2.48920764642720    5.31143298416126
C        -3.10805748715221    2.75795863685598    5.92432584303884
C        -3.15327397762614    3.08470760965373    7.26989389936849
C        -1.98112665613165    3.15557452945146    8.00105229968784
C         1.66726474372558    1.53777015447011    7.85157673679750
C         1.01713275017134    0.30623569982522    7.87092865739175
C         1.69488468843691   -0.83919741635535    7.50349098485536
C         3.02529862192258   -0.76456010203763    7.12055399644296
C         3.67688446377357    0.45700551067871    7.10965297794632
C         3.00414021754890    1.60865749863426    7.47920752207852
H         0.56841661654517    6.27085122988594   12.93619506448236
H        -0.49165356815857    8.35586678554867   13.73855301300114
H        -2.78674451398724    8.29836604782398   14.64228242461646
H        -4.02241736559454    6.16794180524923   14.73907485741614
H        -2.96959090301349    4.08845121343289   13.94009436099010
H         0.27529588522645    4.05243698882282   15.63863545721476
H         2.38348655178253    4.01707976927667   16.92163049440021
H         4.51719523040624    3.55822141464661   15.77978359056749
H         4.55780578963633    3.14030274546641   13.35004453072030
H         2.44069720492728    3.13676217778532   12.05457163895909
H        -0.54607992690915    1.82368100689226   15.23126285305072
H        -2.11179168347710   -0.02199191301768   15.69534003517183
H        -3.77464321995634   -0.69178509916942   14.00750572153571
H        -3.87200510587652    0.46997817625813   11.83372429414077
H        -2.28644116291187    2.32198330257457   11.34827621276437
H         0.95610154985809    4.63015690945834    5.87944463780241
H         2.43490247711094    6.52876912226009    5.34647055943965
H         4.02968796295823    7.36726528559686    7.02474664040168
H         4.14821803914197    6.31982880094494    9.25467610314647
H         2.64983844764246    4.41537986352500    9.80876448875649
H         0.22819908631591    2.32013742628951    5.56975704003475
H        -1.86479644699068    2.22237715326892    4.26488811843852
H        -4.02216350559478    2.70372906971378    5.35150572576050
H        -4.10191319961901    3.28233485146619    7.74700544359288
H        -2.00012765818865    3.41564598515848    9.06268474280804
H        -0.01670248723643    0.25763248307812    8.18722592811315
H         1.19002273239372   -1.79371557653286    7.52278612444532
H         3.55630851530056   -1.66140483691107    6.83701748795372
H         4.71546011144151    0.51402321090114    6.81713508342406
H         3.51591888082064    2.56168245005689    7.47711580030156

