24
CSD_code = CAHGIB | q = 0 | S = 0 | Stoichiometry = C5H14Br2N2Zn | MND = 4
Zn        1.07184496502113    1.99200000136209    0.22000334237161
Br        3.12617595101946    1.99199999015052   -0.95088461786876
Br       -1.28073000558852    1.99200001428454    0.23590379733829
N         1.49375228757377    0.44458344150285    1.74431480878493
C         0.96830635062711    0.71525220299713    3.09136550882032
C         1.52672666714024    1.99200000059258    3.74668277468328
C         3.05854417069983    1.99200000067074    3.73887178907179
C         1.03792485897672    1.99199999934984    5.20135424030730
H         1.08393654828325   -0.43458224283866    1.43088306442497
H         2.49707412663797    0.27591182728272    1.80686481678680
H        -0.11763989056905    0.80833456256260    3.00801529749946
H         1.18581728555348   -0.13131743380368    3.75585149108507
H         3.46810632640460    1.99199999806760    2.73127369041973
H         3.43351875130118    2.87143227013456    4.25787829033383
H        -0.04834260054469    1.99199999577665    5.24038186503095
H         1.40085937374089    1.11226803234666    5.72648328279647
N         1.49375229591433    3.53941656271959    1.74431480999182
C         0.96830634629639    3.26874779533016    3.09136550393143
H         3.43351874979230    1.11256773203391    4.25787829251142
H         1.40085936796886    2.87173196882309    5.72648328361473
H         1.08393656535074    4.41858225164920    1.43088306793878
H         2.49707413541586    3.70808816995949    1.80686482852664
H        -0.11763989304807    3.17566542574604    3.00801528230117
H         1.18581726603607    4.11531743329868    3.75585148929704

