60
CSD_code = CAHJUT | q = 0 | S = 0 | Stoichiometry = C18H35AuClN3O2 | MND = 2
Au        1.59010398702234    8.88408980700326   18.87693398748430
Cl        0.79945012153109   10.96216866132662   19.19876847737014
C         2.29230863543729    6.99289389647373   18.66805423281592
N         2.12084855564445    6.05963541594973   19.57304253780152
H         2.52756016035762    5.13829877551568   19.43060690552142
N         2.97735172362861    6.65264803725679   17.57300662461556
H         3.23199991788713    7.38697962336164   16.92559703535315
N         3.64008243845111    5.42987439767271   17.43021597804877
H         3.35406622267134    4.82321665804857   16.67298466744060
O         5.47948951831577    4.17255982479602   17.76680436302792
C         4.87362078751731    5.18456478825256   17.99933629309459
O         5.19305091681192    6.17668622356408   18.82280342192899
C         1.41398250124022    6.22948027175851   20.82344747374831
H         0.98915056676684    7.23285126069222   20.80023646592359
C         0.28055837151714    5.20740460974133   20.92258420143972
H         0.67471318007126    4.21116542856037   20.70017456591890
H        -0.08043713461172    5.18493328683549   21.94953523365806
C        -0.88599902041709    5.50139248272121   19.97172594675319
H        -1.62269922275689    4.70238151386442   20.08438172532075
H        -0.51743877216418    5.46709406173215   18.94288943716337
C        -1.58224424915945    6.84997737853939   20.18437058343752
H        -0.86819358125353    7.65935226768419   20.02832602186126
H        -2.34233141315038    6.96162540027928   19.40799074407826
C        -2.24896065310905    7.00197563927431   21.55365046174706
H        -3.21875207595185    6.49914437592669   21.53501945487177
H        -1.65001820769388    6.50677109698497   22.31673216389036
C        -2.45014493073624    8.46675705683913   21.95664483396905
H        -3.17033835908183    8.51333082336520   22.77739786656145
H        -2.87751857527364    9.00752709851107   21.11013882706081
C        -1.16140736961084    9.16993977768250   22.39328923656185
H        -0.39867482561187    9.02324809030879   21.63077533602520
H        -1.34460388453751   10.24455898326685   22.44151663361406
C        -0.65593509128465    8.69037635726903   23.75527859175079
H        -1.27690510388830    9.13652263023519   24.53620077929962
H        -0.78370719978051    7.61035785670461   23.83806429419803
C         0.80481365072001    9.04932971560951   24.04389848210361
H         1.02929139308888    8.78124924888006   25.07997786835027
H         0.92295526295389   10.13030116749964   23.94723480136060
C         1.83083295676206    8.37709093361056   23.12621679838161
H         2.81985357082964    8.77334180801927   23.36802378298627
H         1.62470284761135    8.67168851450166   22.09743984855775
C         1.86288925751011    6.84996343984469   23.25127358045432
H         2.48555597213363    6.57354938841618   24.10470228046589
H         0.86138903833986    6.47312797610515   23.45312507378357
C         2.40184687551432    6.15483265405122   21.99816486614201
H         2.62467234699725    5.10834866022205   22.22354940119832
H         3.33211877957798    6.64256905420101   21.69592213009723
C         6.41714028952987    6.13502735130460   19.60718459035158
C         7.63046233289122    6.07428159615606   18.68269267435948
H         8.54031971864660    6.12476326160416   19.27341171893428
H         7.61577573518568    6.91202718469894   17.98867528391541
H         7.62982247629246    5.14653529939971   18.11676460430395
C         6.38341727826534    4.93808613654525   20.55504330232442
H         7.26359829705688    4.95368276924943   21.19085097529005
H         6.37536089464857    4.00921558950786   19.99070206502944
H         5.49621940211552    4.98007557542447   21.18403371998248
C         6.39319487403133    7.44904131142759   20.38619025527977
H         7.27952140912455    7.52634083742171   21.00799531784418
H         5.51122931120893    7.49720370076857   21.01972393600713
H         6.36618809421297    8.29114296745434   19.69997723912739

