67
CSD_code = CAMGON | q = 0 | S = 0 | Stoichiometry = C28H35ClP2Pd | MND = 4
Pd       -3.06404236740909    6.02940538800569   -0.00041881365838
Cl       -4.20093520882409    4.33163278670238    1.09719338059702
P        -2.03536853448068    4.80038363400483   -1.55132961510833
C        -1.54662351562839    3.00052215106770   -1.42486560309725
C        -2.84585745549693    2.19861659981443   -1.48233152184835
H        -2.65272940743263    1.14707588436537   -1.27610230297874
H        -3.30907931003119    2.28029135189118   -2.46568553722839
H        -3.54737225223452    2.57115309752909   -0.73468656348053
C        -0.90972466683600    2.87234393289643   -0.03966456896895
H        -0.70100104013094    1.82932890306135    0.19208722988246
H        -1.59520576640126    3.26043763887986    0.71869286711486
H         0.02606743040818    3.42988250964204    0.01588472326754
C        -0.58010402504697    2.55425535914810   -2.51646220679992
H        -0.30414035844518    1.51337021438038   -2.35047011932625
H         0.33142583577855    3.14963631734820   -2.50832735189622
H        -1.04276606018097    2.62471894343358   -3.49858177607284
C        -3.06130518012835    4.99835482749776   -3.04169634319657
C        -2.60708493897357    4.85875004538672   -4.34823084854767
H        -1.57689082715220    4.59780776972089   -4.54406441069636
C        -3.47263985205416    5.06616740436757   -5.40762178838342
H        -3.11581164951381    4.95646376701602   -6.42165199270639
C        -4.79189148235897    5.41724519419024   -5.17307914501018
H        -5.46217428325865    5.57753728582624   -6.00474091194835
C        -5.24960455237024    5.56984836824183   -3.87395516926007
H        -6.27694175961598    5.85003444933798   -3.69252514778162
C        -4.38843236023171    5.36449780064880   -2.81188281840773
H        -4.74336579704781    5.48162898633664   -1.77880585658875
P        -3.76906149471735    7.75516071916847    1.22314318383853
C        -5.39961558161860    7.88742760082466    2.12764516615761
C        -5.74140378756719    9.30677144264069    2.56792061319452
H        -6.72695145713838    9.31256054148962    3.03242580711541
H        -5.76409601999679    9.99138812495466    1.72167185806055
H        -5.02491002582312    9.67068291197765    3.30106127428322
C        -5.30289050964408    6.94881957470806    3.32918494048468
H        -6.26810422615068    6.86731643499388    3.82640060634449
H        -4.57084348104132    7.31440087650271    4.04931845046280
H        -5.00137513833013    5.95324451860587    3.00099214405018
C        -6.43146045577998    7.35931267303235    1.12860363766999
H        -7.41209384136988    7.28009899375512    1.59463404073397
H        -6.13548249084894    6.36466390922769    0.78389189577472
H        -6.51472640801441    8.01911127740338    0.26393270414531
C        -2.43042153910858    8.06003102791660    2.41781295960152
C        -1.57215782041779    6.98336324175576    2.64527305675533
H        -1.75705132519224    6.02954128972318    2.13208210424457
C        -0.50399885627357    7.11352913414753    3.51370816048269
H         0.15697746026181    6.27734412521703    3.68886949154284
C        -0.28211439965338    8.31967259745441    4.15870053938131
H         0.55083097386947    8.42434436542203    4.83830772028903
C        -1.12385859225034    9.39544812844874    3.92804681480186
H        -0.94375738697358   10.33733744056907    4.42603688401681
C        -2.19321417364108    9.27066723139611    3.05909716049579
H        -2.83480454580177   10.12087648894534    2.87673043115060
C        -2.06543982823966    7.50658240821985   -0.95216227812748
C        -0.97104038927797    7.21876220823521   -1.77502820046459
C        -0.29104677069976    8.23620842579646   -2.43098939169190
H         0.54917274754702    7.99460013414499   -3.06804826463319
C        -0.67745805781037    9.55370281469001   -2.26926511642179
H        -0.14276406924536   10.34289584046419   -2.77712345844741
C        -1.75228911483999    9.85550631998393   -1.45377916117592
H        -2.05831649877342   10.88487788027509   -1.32370369882418
C        -2.44759672757636    8.84432914165430   -0.80419256272585
C        -0.53280540703944    5.78481087066449   -1.94010647512707
H         0.24358817116161    5.54208941893143   -1.20391311027095
H        -0.13745395629573    5.58904546141574   -2.94063057080882
C        -3.63238461789608    9.17815151234299    0.06755404903101
H        -4.54435529547659    9.22443769947772   -0.54046612115729
H        -3.50692567723463   10.13529458266776    0.58138492793220

