35
CSD_code = CAPNUF | q = 0 | S = 0 | Stoichiometry = C8H12Cl2N8O4Pd | MND = 4
Pd       -6.30422381355848   10.40155819138038    6.48630179709139
Cl       -5.19728697378075   11.01371648943841    4.58522900882104
N        -5.35422749049650    8.74614615696453    6.50767601881030
N        -5.70103621633762    7.60343075192505    5.94494378502800
N        -4.82064654780481    6.72461169468716    6.16276128124119
N        -3.85356975566930    7.28316075096793    6.89708436542774
C        -4.19202498917950    8.57236304259992    7.11238507848425
C        -3.46338060238473    9.61202521818673    7.86667307403662
H        -4.06826648469340   10.53798723411870    7.84851585566672
H        -2.49603913431412    9.80863644053649    7.40553367411245
H        -3.31067108411934    9.30409743339699    8.90108576320378
O        -1.75108594116827    7.92618617040883    5.55400708055691
H        -1.00603899457871    8.13445864071141    4.96774285374465
C        -2.67115538744629    6.57271864564565    7.26655166622473
H        -2.86883530605427    5.50268194437924    7.15901862714548
H        -2.40580953418321    6.77998595806431    8.30788520198053
C        -1.47052968195071    6.92752566636559    6.38213976687834
O        -0.41511831638524    6.37157309653812    6.45031360585504
Cl       -7.41041695790734    9.79008141960740    8.38837231635447
N        -7.25407259221886   12.05707138258049    6.46600751578055
N        -6.90735671067974   13.19980837463537    7.02878099342636
N        -7.78781240979320   14.07857309141453    6.81094607536620
N        -8.75485424298552   13.51992661556732    6.07664123576582
C        -8.41628008080751   12.23076643550267    5.86133192685636
C        -9.14476335146756   11.19101568004781    5.10704202470154
H        -8.53963344071463   10.26521924943937    5.12518150659886
H       -10.11203258469101   10.99418506209796    5.56824083030614
H        -9.29757163298336   11.49893533494402    4.07264286186058
O       -10.85727827752610   12.87652689722080    7.41960937479761
H       -11.60231331764679   12.66809619242285    8.00582893465240
C        -9.93735636290667   14.23022282867677    5.70717436709203
H        -9.73982366429624   15.30028072175120    5.81468094065231
H       -10.20268025715097   14.02290288142790    4.66584262074757
C       -11.13789911494981   13.87532373346496    6.59166241572844
O       -12.19340874716713   14.43110057288060    6.52346555500296

