59
CSD_code = CAPPER | q = 0 | S = 0 | Stoichiometry = C16H28Cl2N8O4Pd | MND = 4
Pd        2.70003482197891   10.35733926715652    5.30440231936031
Cl        0.60566743694771    9.53057961439687    4.82448923580333
N         3.45785934110770    8.69603568790688    4.76266962451530
O         2.82883717717439    9.12539471234002    7.76481038759167
O         3.98749070659590    7.36330212911303    8.54386769796365
N         4.60813178718418    7.39131290842409    3.63101864080180
N         4.19844992313947    8.62315571109598    3.70640990928014
N         4.16142733888585    6.64118725822974    4.60835038721357
C         5.52775863786323    6.90356295056209    2.62219716198749
C         5.04305218953733    5.52629281243935    2.17719229874737
H         4.99152104566590    4.85406191949334    3.02916252145369
H         5.72950982340633    5.11534262825553    1.44264362010900
H         4.05424707963616    5.59566159369384    1.72956936674392
C         3.42435688882609    7.47023682306057    5.32369901438991
C         3.24880050231660    7.86424501583525    7.74201205857949
C         2.64909127986394    7.13170945676399    6.54096073995123
H         2.69031397229609    6.05678394489230    6.70865441699135
H         1.61906746506847    7.47875840712761    6.40207749571325
C         6.90499252402823    6.81488214744698    3.28341097998948
H         7.22221443012989    7.79628115834151    3.62921991338491
H         7.63525391240192    6.44364258481766    2.57014909021632
H         6.86956683792876    6.13850950561406    4.13425271838673
C         5.53273227105353    7.89914603765648    1.46853154030837
H         4.54476210845567    7.96630232249795    1.01931142586777
H         6.23878486199354    7.57341905461791    0.70997271757000
H         5.82163254119730    8.88564603323986    1.82023049186148
C         3.33894609376646    9.98498442861520    8.78738568802090
H         4.09208196525609   10.64113367007302    8.34195989730592
H         3.78298355914863    9.38696191088709    9.58490720142066
H         2.49593386079726   10.56878640179073    9.15487313170539
Cl        4.79490973730740   11.18347572993406    5.78439184776602
N         1.94203348925030   12.01860967945216    5.84602172710659
O         2.57087508379883   11.58903128119183    2.84391959004436
O         1.41340411318518   13.35197161475940    2.06501873839026
N         0.79159417807138   13.32373422176706    6.97701231003749
N         1.20100134896354   12.09177888085333    6.90194744393853
N         1.23896435664636   14.07365143618340    5.99982700241323
C        -0.12849387303052   13.81180938772504    7.98524498547576
C         0.35603493116181   15.18922028583417    8.42999574265067
H         0.40796706734562   15.86116522998745    7.57782349977541
H        -0.33074573813236   15.60042270224235    9.16409608273731
H         1.34463658388480   15.11998518578652    8.87808890183952
C         1.97618491730835   13.24435546504963    5.28493305684935
C         2.15183259657466   12.85047525250106    2.86674818018833
C         2.75197479512655   13.58249571397463    4.06790307192275
H         2.71151830957505   14.65745820267847    3.90030510549121
H         3.78172949655507   13.23469430360813    4.20689030820156
C        -1.50539469156739   13.90027187662217    7.32330674658274
H        -1.82244191182537   12.91875822091485    6.97766605482240
H        -2.23600483867045   14.27174418591401    8.03608695071767
H        -1.46955411385835   14.57636187561528    6.47225659603837
C        -0.13405474044089   12.81661001843009    9.13923780303026
H         0.85369707942226   12.74954283445474    9.58895611025243
H        -0.84044511380278   13.14264406355148    9.89734960791255
H        -0.42286312117376   11.83001292453849    8.78773107467525
C         2.06020778355877   10.72979570747017    1.82132070098207
H         1.30866392378319   10.07230267444123    2.26743527445917
H         1.61407951862290   11.32805687959160    1.02515286537036
H         2.90328644870635   10.14740606854450    1.45174092709421

