39
CSD_code = CAQNUE | q = 0 | S = 0 | Stoichiometry = C15H14ClN5O3Ru | MND = 6
Ru        9.58237238518276    8.88243535299460    8.60649471665837
Cl       11.68457250862213    9.53156339871899    9.14771213395189
O         9.78655969168452    7.34919251850323   12.36969414363829
O         9.41501435973619   12.81376599208173    7.59415686915787
O         7.23437548538751    7.72625630964364    7.51371309333515
N        10.40434520928141    6.91201814148577    8.89819237416949
N         9.22556598254817    8.61916752494132   10.55752187575731
N         9.04803313730301   10.81085267737001    8.62532177949265
N        10.18773086430528    9.48474138733900    6.62693209531699
N         8.13885108589469    8.25461755347645    8.02920751290349
C        10.97541092899865    6.06497943821768    8.04946770557570
H        10.86359649251117    6.27654174235090    6.99520232738506
C        11.67749345941277    4.94525169945980    8.45894037732781
H        12.12244866265405    4.29307098073794    7.72448483868745
C        11.79645061973085    4.68672699981584    9.81709677405348
H        12.34734251283416    3.82851787149659   10.17020787479973
C        11.18617557113252    5.55397117126221   10.70220461609775
H        11.21693114450721    5.42199663369048   11.77297269395629
C        10.49890530494754    6.65677141434378   10.20804139173462
C         9.80831767630589    7.58951739136035   11.16841444043220
C         8.54012851369147    9.57448441087686   11.39475661587524
H         9.27679147203766   10.19335195560432   11.92618402433507
H         7.97343397999556    9.01371543804800   12.14924685954420
C         7.60386030436140   10.46446818273170   10.58313115180981
H         6.96644405175640   11.01912278776779   11.27277654654065
H         6.96496989694645    9.84210469945016    9.94874290350923
C         8.36679092610460   11.46292740133136    9.71834569677174
H         7.67540282892539   12.20127058899518    9.29158475806338
H         9.09602262132665   12.00999841691777   10.33228416177741
C         9.52736595872680   11.59563734287112    7.66209680182123
C        10.20361093121756   10.82090707442180    6.56111827227658
C        10.77714765756851   11.50518020185800    5.49547609299949
H        10.75161012770395   12.58382574281906    5.52075262549787
C        11.35089098378439   10.78806427610612    4.46372532072932
H        11.81796130665957   11.29028646524812    3.63041555675473
C        11.30099988790895    9.40232727554699    4.52091540720354
H        11.71347492381492    8.79490922182698    3.73119263216028
C        10.71151179522123    8.79866671151093    5.61739213387638
H        10.64728874926834    7.72049560677802    5.67188280402161

