33
CSD_code = CATBEG | q = 0 | S = 0 | Stoichiometry = C10H14Cl2N2O2PdS2 | MND = 4
C         2.29208543671085    9.78410883327326    3.34470962825616
C         1.75667626864496   10.16217800153998    2.15017330514513
C         2.21031972585878    9.56391977246860   -0.54789333302956
H         1.73185877078385   10.48231882086823   -0.88576868308157
H         2.06685099966289    8.76038701934665   -1.27288735000393
C         3.69367026984164    9.77869131945901   -0.27536258027758
H         3.84611051673021   10.65275981235416    0.38284011242374
H         4.20398982312551    9.97686636001055   -1.23059187473506
C         5.61807177627223    8.59497294629283    0.44038180636746
H         5.97446181953127    9.42108499999195    1.06781081545983
H         6.09021075869507    8.66018897668133   -0.54593809419057
H         5.86560390722344    7.64106794707260    0.90602787426821
C         2.38577484089382    7.55172675973818    5.01293467694980
H         1.97200116159014    8.38478276310764    5.57998958624192
H         3.17233910405052    7.05976982954848    5.58248323389768
C         1.31776160332725    6.54928163312610    4.59729817953566
H         0.72347940136826    6.25754873007034    5.47675926748503
H         1.80349756543662    5.65385174253063    4.17329954149004
C        -0.36774625895009    6.21997657233914    2.97552047202344
H        -1.01800913522954    5.72588344242261    3.70536684593877
H         0.22274171774281    5.46282890855665    2.43280977172225
H        -0.97158405841865    6.79161685385698    2.27108297380145
C         2.34281443267597   10.63829950343067    4.45687642755445
C         1.37671372302049   11.47897860784990    1.85540825468789
Cl        3.61894967677699    5.29327968141624    2.33038671917399
Cl        1.72534082589859    6.05375941776402   -0.19716458488675
N         2.39615834524946   11.29358412485038    5.39796891149170
N         1.08138496971739   12.54357504861728    1.54302010719583
O         0.48528194293308    7.15509430368086    3.62022147286528
O         4.21189419484627    8.61559218680144    0.32675838976623
Pd        2.46544094761342    7.09219395550724    1.64515741510258
S         3.18180013920634    8.25922903905055    3.52751322909220
S         1.32135478726378    8.95250208645956    0.92540748232870

