28
CSD_code = CATKEN | q = 0 | S = 0 | Stoichiometry = C11H12Cl2N2Ti | MND = 9
Ti        1.29454403943656    0.62676247239109    7.88163125915214
Cl       -0.80428718224394   -0.06259930074240    7.91315564810573
Cl        1.75655727720912    0.92270380511150   10.02234325933542
C         2.17757263928648   -1.54474858505246    7.89228897865923
H         1.93952893817137   -2.33119300550039    8.59849713299197
C         3.26095665542284   -0.64629852551514    7.99275265458863
H         3.99577699603084   -0.62325604681450    8.78825820417772
C         3.28602279004668    0.14466157823887    6.82659577024435
H         4.07152998372483    0.84253935817456    6.56619849986759
C         2.22572615549385   -0.28830528818825    5.98544978981230
H         2.04905230251171    0.01553899429747    4.96124824237237
C         1.55968751355914   -1.34446289250437    6.64074085127446
H         0.76485136864033   -1.94856672133014    6.22073894826380
N         0.34393211650442    2.51681451049246    8.16478871357375
H        -0.60025016729281    2.75516560439787    7.82948599295689
H         0.66212961373860    3.18054225936010    8.88600142606133
N         1.27111976463538    2.30868007122336    7.13461879282089
C         1.66340015154505    3.38304927978432    6.36483489946423
C         2.54445365219386    3.20162883598943    5.28827874830098
H         2.90123715884439    2.20981300129396    5.06051448224916
C         2.94812681672104    4.27211532600142    4.51880406123321
H         3.62778861879260    4.10652224573064    3.69587915197455
C         2.48919430341750    5.55277396593105    4.78800401224426
H         2.80840156936380    6.38699225700335    4.18329457555589
C         1.61076525975281    5.74560553955255    5.83920378010702
H         1.23892719979839    6.73574576512876    6.05892724218500
C         1.19711783823958    4.68261808444373    6.61876280731942
H         0.50603662645262    4.87335741110086    7.42880207510629

