43
CSD_code = CATWOL | q = 0 | S = 0 | Stoichiometry = C16H14Cl2F6N2O2Pd | MND = 4
C         7.65522147597855   18.19183608359715    2.27628276440961
H         8.63256682478184   18.65050940687332    2.15818795467851
C         6.55456690759575   18.91724617612090    2.70279208566325
C         6.66032558311812   20.38479107902321    3.03114685113167
H         7.71132211824169   20.67572844408974    3.15120160572000
H         6.22306147925473   20.97624648590564    2.22099484821546
C         6.43177343818766   20.26211801901696    5.38351086327227
H         7.15030267945363   20.97247109785909    5.81696385945890
H         6.91132804272736   19.28069621274230    5.27161245139111
C         5.27432904163607   20.09109037329855    6.36311800576933
C         5.33526307965225   18.25015681722346    2.83446355960501
H         4.46482354667230   18.78478234397164    3.18163609758219
C         5.26876273864974   16.90632153376768    2.53019481403936
H         4.33434609991624   16.38037280408489    2.63282716066213
C         6.41547578093640   16.23817269943776    2.09560225892619
C         6.46101004443577   14.82014102859399    1.74970078146726
C         5.34943492305539   13.97693252352395    1.75338474253008
H         4.37723166478409   14.35656588892660    2.02049809496598
C         5.49866349422997   12.64849130233840    1.40588601492706
H         4.64181295699405   11.99112849033898    1.39321672710877
C         6.76376798975187   12.17049675478151    1.06535077134157
C         7.82543126464577   13.06407975446102    1.08865459490013
H         8.83352140340732   12.74672143076646    0.83984065806595
C         7.00608358246364   10.72001110825300    0.73342473809351
H         6.07225564333633   10.24607126997151    0.39886939551665
H         7.76198338642536   10.63138704874459   -0.04906668764642
C         6.65989418994144    9.82624436726628    2.89351000213965
H         5.74193316818529    9.30602886765371    2.57704724902210
H         6.39015718391492   10.77620871638243    3.37979058014678
C         7.34899060369574    8.95501560812735    3.93927677345215
Cl       10.59941249155014   17.39979351582109    1.36442030648778
Cl       10.71339604477108   14.37329689783623    0.68253405953809
F         4.63427531117995   21.22981302289364    6.61873386023844
F         4.36458802291709   19.22086429023936    5.90389113815713
F         5.70736311338241   19.60969177725301    7.53759819438381
F         6.52177655489819    8.74176943321414    4.97887078106265
F         8.44893273578062    9.52022933458551    4.43236348593371
F         7.68667325823372    7.75679447676670    3.46487294727941
N         7.59177606975990   16.89536074184601    1.97908296233356
N         7.68231110166101   14.34782226985657    1.40641332948081
O         5.90242341098015   20.73521285527504    4.17300185612218
O         7.54826563799247   10.00377681930207    1.82887393643678
Pd        9.12726591080732   15.74871082797906    1.37002352596333

