70
CSD_code = CBPPRH | q = 0 | S = 0 | Stoichiometry = C32H34ClP2Rh | MND = 7
Cl        4.00033847673947    1.47703766323835   -4.99166383107846
C         1.54787600245847    5.96903599622176   -6.47244066329658
C         2.73673555536795    5.39164989186299   -7.24150130420700
C        -2.84683505934267    1.28571895793498   -3.81214996219859
C        -1.53501043036255    1.07979882552601   -4.20149010168662
C        -0.48542346403250    1.63248701683797   -3.47571708362560
C        -0.78536475558348    2.42195770484911   -2.36775810659069
C        -2.09525810427161    2.64192039099590   -1.98823638813146
C        -3.13234520597872    2.06933267100535   -2.70752574486393
C         2.05197402525640    0.00200886808251   -0.23503679378455
C         1.50932378502984    0.18471116294629   -1.49276700287054
C         1.98800408031410    1.19879885370850   -2.31684070866437
C         3.52562891898663    4.38149670350248   -6.42945529626606
C         3.00240288470439    2.02996408315713   -1.86232622147744
C         3.54281222884994    1.84632554715319   -0.60193306544778
C         3.06893768533907    0.83155282934120    0.21180054166633
C        -1.95617909707014    3.92090115864683   -5.73422768039143
C        -0.81079080756403    4.28735288242976   -6.43536326866056
C        -0.84278559021594    4.29916225700851   -7.82663322758981
C        -2.00291651918223    3.97021927025641   -8.50303789679366
C        -3.14195884431348    3.61769827955237   -7.79777401834132
C        -3.11561734286575    3.59585390852808   -6.41285397523948
C         0.77882962768904    5.25684497414631   -2.85297081111131
C         3.77847217416241    4.55747492269248   -5.06759927755741
C         0.14583165834194    5.49399348993814   -4.06602363555935
C        -0.86136079364121    6.45039484866498   -4.14118046685565
C        -1.23929390177595    7.14265368399420   -3.00580459270117
C        -0.61219857590338    6.89325082045530   -1.79469414646324
C         0.40127624616194    5.95270783285105   -1.71875314740923
C         1.30444204924733   -0.26068848404907   -4.65972039165867
C         1.52946320912123   -0.27340253945282   -6.18272104652861
C         1.02790074948647    0.96531088963384   -6.85973873226510
C         1.78903122240711    1.73758685525065   -7.63974894089180
H         0.83878203128082    6.46994327432594   -7.13619071199015
H         2.59765249334919   -0.36594015194776   -6.38154945277780
H         1.02454377533001   -1.14503171721932   -6.61255090821018
H        -0.02915356616758    1.18924564363131   -6.74615934711604
H         1.36168026364529    2.55110004971974   -8.20700351936638
H         2.81507728948219    1.47205087534000   -7.85429671944763
H        -3.64945103219774    0.83446880267241   -4.37821355937296
H        -1.33762415941068    0.47699812706165   -5.07594756995056
H         0.02014199914150    2.85653960978556   -1.79319168552590
H        -2.30839638576273    3.25897249784535   -1.12710558112214
H        -4.15703184576754    2.23387789402558   -2.40769131230418
H         1.89036021649493    6.70019957379895   -5.73470391631457
H         1.68197981473436   -0.78953481146455    0.40099331767018
H         0.70860420574804   -0.45587278935994   -1.83729286235418
H         3.37788585301304    2.80790789240927   -2.51703369973106
H         4.33623716819083    2.49244455260371   -0.25507064366305
H         3.49126822792289    0.68386055355720    1.19520551610677
H        -1.93579553464087    3.90454379756344   -4.65379026651803
H         0.04095180124852    4.57691985971519   -8.38383071392392
H        -2.01969997859681    3.98768612211239   -9.58338941400867
H        -4.04764051112422    3.36094635343730   -8.32728604251576
H        -4.00090626690987    3.32311802816966   -5.85719842793021
H         3.41129200499920    6.20277745575014   -7.54225407502166
H         1.56770190439476    4.51318713205147   -2.81619581787180
H        -1.35057969027567    6.64362926919032   -5.08616439762731
H        -2.02585052351311    7.88122933661596   -3.06370764218106
H        -0.91397965290415    7.43603447191506   -0.91083071604340
H         0.89442945951038    5.76122031422463   -0.77658441625255
H         2.38802808903487    4.91162032434685   -8.16001127829174
H         4.26430206050049    3.83439879092186   -7.01590490283097
H         3.39243370651486    5.42964257996794   -4.54577131572465
H         4.68161830664966    4.13443934311350   -4.63888285677554
H         2.13066009238834   -0.78087802320112   -4.16844689898573
H         0.37352064999899   -0.76558242757470   -4.38894283071079
P         0.74069234122832    4.58391660646577   -5.52963896117906
P         1.27269993700621    1.46532551064061   -3.97359079943011
Rh        2.31182336790146    3.00678306087164   -5.31068858214933

