37
CSD_code = CEGZOE | q = 0 | S = 0 | Stoichiometry = C12H15Cl2N4O3Re | MND = 6
Re        0.31474953393534    5.87096926663502    2.90374354970439
Cl       -0.62596113423387    4.56324797819488    4.52154274836008
Cl        0.47760547276272    4.09635024737949    1.55889407442457
O         1.82699612806146    6.03874043312734    3.56297650694735
O         0.69799154133020    7.09032552034303    1.08518087883858
O         0.45837955372534    9.05868726059606    0.06944051606582
N        -0.30820014212833    7.69012913656561    3.87889315435321
N        -0.78536076317734    8.71514555566910    3.15004223882886
N        -1.73009850667734    6.19365184705719    2.10139101579588
N        -2.06389491575573    7.42614345125768    1.65157929063035
C         0.17362481985058    8.20358786089586    0.86903012250810
C        -1.14550479632784    8.52011731347018    1.77436469540093
H        -1.60218906251430    9.43188359334404    1.38576466256855
C        -0.04526365382093    8.15000779402690    5.10034762757554
C        -0.36966638955362    9.50935061407851    5.14428651647984
H        -0.26604460203429   10.16422474731570    5.98416904076999
C        -0.83589172626603    9.84442862008490    3.88752545154792
C        -2.74465360588197    5.37990927523727    1.78829974838904
C        -3.72444332210088    6.11416422443998    1.11169571074217
H        -4.64937010655646    5.73704213767821    0.72792156422948
C        -3.26222567678571    7.41134843903168    1.03118075699029
C         0.52507041453319    7.29353458916576    6.16262368224041
H         1.39609029233692    6.76729070315569    5.76957247322698
H        -0.19763428619115    6.53900683719280    6.46933461557607
H         0.81339759127792    7.89508742291662    7.01893751268767
C        -1.30369009985470   11.14480032519367    3.35081067948213
H        -0.71106307626043   11.43816598729903    2.48492744130341
H        -1.20117827523803   11.90737289145023    4.11708649495950
H        -2.35118997657982   11.09424544091210    3.05277732446512
C        -2.78702018940788    3.94138692406305    2.12640228089539
H        -3.70011651605799    3.49878771379707    1.73924305268845
H        -2.73928484434980    3.80386477297143    3.20621015082021
H        -1.92077018928732    3.43317219541646    1.70134355380582
C        -3.87056323351374    8.61191012835403    0.40917821400133
H        -3.22335240695541    9.01326998340737   -0.37042214544304
H        -4.04705002887845    9.39234892514619    1.14984564162680
H        -4.82242382142466    8.33989984313013   -0.03754084348889

