26
CSD_code = CEHZOF | q = 0 | S = 0 | Stoichiometry = C9H13CoI2S | MND = 8
I         6.40930775749073   -0.46515291653244    1.13808036595832
I         5.63976605421139    0.55753861131319    4.63771370554418
Co        5.58792287184838    1.53152786650827    2.36180430993570
S         8.42482000061349    2.64728896005834    2.70747769622351
C         5.82353513585892    3.28020151724006    1.25000530754445
C         4.84028608059158    2.46247458645982    0.64925278805820
H         4.84824859012800    2.11600063111846   -0.37239648293328
C         3.81478143654206    2.22827565570535    1.59778495663346
H         2.89729113891254    1.68739352604885    1.41587180925728
C         4.13112613023266    2.96254045964998    2.77201696161679
H         3.50613956953325    3.06063430201165    3.64529499098228
C         5.37197046028659    3.59142788812240    2.56960597532414
H         5.85390482078502    4.25800162688021    3.26692875319029
C         7.06004566836839    3.78853561384130    0.57237229041359
H         7.38425473689644    3.05939648502615   -0.17640292994105
H         6.81535453643755    4.71430290888057    0.03745041741866
C         8.18808155211898    4.05585700547186    1.56038337871110
H         7.96148512717290    4.90961050560762    2.19827231012690
H         9.13096814903467    4.24089531650561    1.04981278167340
C         9.49714839016504    1.54418487268425    1.72552595109376
H         9.40422911751691    0.57200039163096    2.20834650240700
H         9.08616536662785    1.47517578157342    0.71907824317939
C        10.93989195606699    2.00674517255736    1.72057779660478
H        11.04701774102469    2.97764995286886    1.24007790693618
H        11.54642743979404    1.28757816179661    1.17481814221227
H        11.31753017174142    2.08031511700020    2.73754607182121

