34
CSD_code = CEKJIN | q = 0 | S = 0 | Stoichiometry = C13H13Br2HgN3O2 | MND = 3
C        -0.26869894606803    2.80632012727533    9.11346173769082
H        -0.77350202610392    1.93868098746035    9.51373486332007
C         0.29687181025854    3.76355151317621    9.94623912623041
H         0.25299235869286    3.67363802750647   11.02281973818311
C         0.97084611091684    4.93924823436752    8.11885791636276
H         1.46771895997808    5.79710654238572    7.68404626987297
C         0.40083786438534    3.96968016130460    7.29191851367364
C         0.48428955420071    4.11938587723387    5.79664908623170
C        -0.26997264544611    2.87392227448921    3.79179968689238
C         0.25051576311170    3.71159330475904    2.81716846018203
H         0.79636976663821    4.58990627259421    3.11818706841999
C         0.06444051956150    3.41423953515466    1.47739961114859
H         0.47189346499779    4.07000757734459    0.72429734180307
C        -0.63918635084611    2.28379082555355    1.10962689553543
H        -0.78619558404702    2.04890545546156    0.06657934833776
C        -1.16612237377195    1.43634092485035    2.07400037748196
H        -1.71224624098037    0.55956784947083    1.76448151721818
C        -0.98919860126221    1.71902865836404    3.41825715939705
C        -2.20438155919406   -0.20600851186204    4.17162674495229
H        -1.59431757740462   -0.90882773735422    3.58861423858679
H        -3.09984323838432    0.05127298210342    3.59027393343532
C        -2.59921183508990   -0.82801151692980    5.50165894528907
H        -3.20029574928569   -0.12834248514995    6.07609794955286
H        -1.71001724091151   -1.07541657184228    6.07514693711844
H        -3.17428059108116   -1.73270645440845    5.32868825463356
N        -0.21776092394882    2.90746389503650    7.79844010895835
N         0.91731904144486    4.83325630844138    9.44334289795318
N        -0.12719776336608    3.09979156987854    5.16050965047667
H        -0.55284156536945    2.39099811721331    5.75104311839138
O         1.04955008470792    5.06776493711398    5.29107654119099
O        -1.45909984991429    0.96308873253590    4.45457771630263
Hg        1.94300596106879    6.56793668362956   10.97382954678721
Br        1.36375109075011    5.46418531672359   13.07193073774929
Br        2.78726831176354    8.12474058611821    9.31481796063821

