29
CSD_code = CERGOW | q = 1 | S = 0 | Stoichiometry = C9H12AuCl2N4O(1+) | MND = 4
Au        5.85302280341253   22.52005664277927    0.08667605564892
Cl        5.02501232410498   21.32216122678802   -1.59756309808862
Cl        7.70110752270316   21.29458583572885   -0.10948741049096
N         6.65895683427265   23.61210791090327    1.62168323258146
N         7.04374985299352   25.23663060969680    3.03274332855405
N         4.14114973476266   23.63839329197562    0.22054099033369
N         2.76671077366914   25.28350368982808    0.64831553229595
O         5.45762151866370   26.72787558438027    0.87822608585966
H         5.90992821594844   26.47852164017741    0.06177335474039
C         6.22146026423156   24.78589491934115    2.07129512054283
C         8.02468569076451   24.30965424818474    3.20724477352617
H         8.81114558276810   24.43006276122046    3.92327400015367
C         7.77970542223737   23.29920556748035    2.32883401565555
H         8.31858504621392   22.39371567035392    2.14102851538540
C         6.92554563011114   26.47930110916666    3.74968900245117
H         7.86132503855039   26.68066896323959    4.26602714399770
H         6.12510707253002   26.42062600155104    4.48965976705658
H         6.71570398261529   27.29516977301761    3.05845021286420
C         5.04158231601400   25.58798768583751    1.60228114754732
H         4.54948989515914   26.00828342631646    2.49330578223739
C         4.00902452125722   24.80984282359608    0.83827337841395
C         2.08654112129675   24.37389627843830   -0.10128317172593
H         1.06608822547265   24.51389064006980   -0.39251001992461
C         2.94499852438651   23.35052664987023   -0.36293271820720
H         2.80569104716386   22.45161291897012   -0.92696226025074
C         2.24089236985219   26.53187314682336    1.13539801235748
H         1.31149747355391   26.75178665343969    0.61511704464826
H         2.95196807507694   27.33739016403300    0.95349855373296
H         2.03470312021449   26.46987416679228    2.20560362810287

