36
CSD_code = CESGEO | q = 0 | S = 0 | Stoichiometry = C13H19IN2Pt | MND = 6
Pt       11.04047094271998    6.51732710940362    3.14491836892367
I         8.78033490666904    5.07069785565851    3.67770104487184
C        11.42477079589809    5.31781823084523    1.51812723010278
H        12.31227710864770    5.60659302873069    0.95302586798249
H        10.55183275318965    5.37383990030001    0.86051967077442
H        11.54121429153995    4.27892866098825    1.83309341128910
C        12.28543028516856    5.31855738780481    4.26508304772958
H        11.75717386701116    4.40716914371998    4.55019569118979
H        12.57424654227363    5.85808770746902    5.17153771145681
H        13.19384491424866    5.03555869948881    3.73324360688655
C        12.71275271039795    7.67453664826909    2.76845941342495
H        13.11337212021207    8.05643446194410    3.70967891182270
H        12.42550465652680    8.53020120117531    2.15218038575005
H        13.52042945713410    7.15269212684507    2.25780600311462
N        10.56977363376582    7.83777283723866    4.93468347226985
C        10.22278376112298    7.28606560605611    6.09293276228308
H        10.24172728110893    6.20609395588508    6.14427014923046
C         9.83394644103083    8.03227476399124    7.19312183608240
H         9.55731266503679    7.53443098079531    8.10858796973092
C         9.80047237574535    9.41256515219671    7.08659044735711
H         9.49485708254894   10.02629379257434    7.92073114758267
C        10.16937382506548    9.98823720237354    5.88080151692752
H        10.16287031229279   11.05870960419404    5.74693310499149
C        10.54905181941897    9.16262516376513    4.83692466513605
H        10.84597723961870    9.58646595394913    3.88615875559208
N         9.72855372387662    7.90576859524721    1.87400203596363
C         8.55640325592486    8.34044297391405    2.32340631156100
H         8.30152133183670    8.10296153493594    3.34747167283631
C         7.66560007438080    9.05353722220128    1.53945790149096
H         6.72465535224429    9.37758913102172    1.95472917413333
C         8.00257949300468    9.32303198535508    0.22338113009121
H         7.32812027733981    9.86661155909182   -0.42114711792629
C         9.22646358198159    8.87422777348270   -0.24596112176418
H         9.53628400091515    9.05621328228276   -1.26297137436987
C        10.05526433477220    8.17355802502983    0.61367608067890
H        11.01605278533198    7.80998074177554    0.27484911480134

