43
CSD_code = CETHAN | q = 0 | S = 0 | Stoichiometry = C16H19ClN5PPt | MND = 4
Pt        3.18236499779243    9.78858392852307    2.57149856118369
Cl        1.15992712112163    8.65650217777408    2.84447495359199
P         3.83452051875932    7.95381134304557    1.41921877990653
N         2.55767162139350   11.42900807812915    3.57610777147497
N         5.67630962595001   13.09629124224053    3.04002030818182
N         3.28105635112285    5.46624293816677    0.35880637639486
N         4.78412864085103    6.86824778110066   -0.93197939524712
N         5.55603727335241    5.81950610325650    1.12634872587480
C         1.36254446630831   11.58207398318699    4.13761582468146
H         0.68011711123729   10.74464845034438    4.05940477252338
C         0.99491387603510   12.74618332083477    4.78989589015209
H         0.01405859895080   12.82388271469828    5.23087183366596
C         1.90126778802034   13.79534044815899    4.86231367151011
H         1.63977826100653   14.71551531330270    5.36281404191672
C         3.14492563860760   13.63710435878589    4.28121794347634
H         3.89871053540195   14.40710664555654    4.29981888116718
C         3.44719226757579   12.43835012224119    3.64378240992809
C         4.73020549003222   12.16058554826532    3.00961787509977
C         4.85997573311854   10.88908159741860    2.41368997280412
C         6.10177349859346   10.63680192620094    1.83399895876704
H         6.30442170260447    9.68481245637132    1.36008060962463
C         7.09822797021597   11.60045639248164    1.86046026523017
H         8.06383991202259   11.41341374721151    1.41416855423891
C         6.83257981277911   12.81798724546980    2.47335642025111
H         7.57715571032957   13.60240265245606    2.51456687562451
C         2.67090763261587    6.52898564924203    1.13143289311292
H         2.34610997846071    6.13281810441361    2.09921598016956
H         1.78167502964979    6.89411320967009    0.60708573885316
C         4.37785199599756    8.13455221773540   -0.35757851436044
H         3.54026929643315    8.53728247457272   -0.93869526431223
H         5.20823389287240    8.84306173358288   -0.43075765147376
C         5.26951239820764    6.92211372636158    2.02114315033983
H         6.16593934253619    7.54096851441081    2.12504292109441
H         5.01972515834515    6.52221756182044    3.01064757417970
C         3.68340638365601    5.91701097289388   -0.96091268128820
H         2.82716254577252    6.37763562482813   -1.46008999830788
H         4.00538932418863    5.04369267183217   -1.53716832620251
C         4.43328857201636    4.89842473787058    1.03438099552899
H         4.76181177321303    4.01998649362776    0.46972628144033
H         4.14286183493515    4.58724876109362    2.04097915393651
C         5.89991226233561    6.27934009149631   -0.20941392526771
H         6.25477878355267    5.41652279572578   -0.78210086693352
H         6.70695927201753    7.01348414361490   -0.13810834254388

