41
CSD_code = CEWPEZ | q = 0 | S = 0 | Stoichiometry = C17H20ClN2Rh | MND = 6
Rh        3.23135882875920    1.52057194189279    2.03472281381903
Cl        1.60443887383408    1.17874718936725    3.57593787230038
N         3.55294646302560   -0.43667175286109    2.21470981582018
C         4.34003320881616   -0.87511702997932    3.17214013965755
H         4.92665494797873   -0.13694730189790    3.71047530166744
C         4.44891622004368   -2.23392608639355    3.53901318516302
N         5.34181247148061   -2.60113210215772    4.51790533160953
H         5.20881116110319   -3.51274842798066    4.92445691461626
H         5.61148874503042   -1.88416773952054    5.17164532743073
C         3.70292111509180   -3.15708448102701    2.83278504303403
H         3.75964510052270   -4.20945754615708    3.07003133673554
C         2.84628099238622   -2.71569581656982    1.81166107699926
C         2.02908071492976   -3.59283879665527    1.06674535842997
H         2.08447025500357   -4.65100924115421    1.27713533553391
C         1.17831510390488   -3.11301649929268    0.11117199753460
H         0.55283199339249   -3.79226034672472   -0.44887722185731
C         1.09992109160379   -1.73523548956759   -0.14540973182896
H         0.40964970614626   -1.37306097744558   -0.89212597448513
C         1.88808570062751   -0.85862482368730    0.54785519022552
H         1.82726323644365    0.21603291978748    0.37898303276511
C         2.77966712019160   -1.32432578255867    1.53325688361899
C         3.28062766005989    3.63336160860794    2.39601125349199
H         2.92524227527846    3.78240712104964    3.41508264618589
C         2.33497954221047    3.34911585555041    1.42383476968938
H         1.28836461253055    3.31798523334737    1.72807917061914
C         2.53574846504175    3.55976948588722   -0.06065865618733
H         2.47985307281969    4.63105660020209   -0.28211360471712
H         1.70604402900153    3.08022423814358   -0.58607584250310
C         3.86460387228932    2.97956301173994   -0.58448898981769
H         3.72926632370001    2.67553027985075   -1.62446575759923
H         4.64389908920282    3.74298138185667   -0.57231926548530
C         4.33149086422909    1.78582570177336    0.22277538856974
H         4.35333597442071    0.84754073290631   -0.33131974282397
C         5.18784514577444    1.89251205982943    1.31833217737083
H         5.83982863923755    1.04149628649547    1.52408703177396
C         5.72082203286701    3.19542421339853    1.87185184403128
H         6.20117524821745    2.98278930278888    2.83032827542167
H         6.49638589167418    3.58400114084154    1.20197049839945
C         4.62581444673365    4.25650458182527    2.08742797853775
H         4.52941042146571    4.89044724688835    1.20497968685291
H         4.91876934296161    4.90183210747459    2.91776210947344

