40
CSD_code = CEZFIW | q = 0 | S = 0 | Stoichiometry = C10H19ClCoN5O4 | MND = 6
Co       -0.00110090324362    4.98573128287107    4.16368799291472
Cl        0.76417545319753    3.14192571826104    3.47308227615618
O         1.04170251634462    4.58194113325129    6.67813749234488
O        -2.47579745152792    4.46315203259041    3.07309526938901
N         0.06198637527120    4.35127643762322    5.95337818146007
N        -1.77013090867964    4.28949158769107    4.07858755567644
C        -1.21303267597072    2.99329695649456    7.52317328308317
C        -1.01172593720883    3.67698142582077    6.20422349175389
C        -2.02358356726439    3.64111602160990    5.16709248591233
C        -3.32087411878019    2.91475348454870    5.35921472320994
O        -1.12572349971862    5.59590043477061    1.71876111180718
O         2.39823043793109    5.71175484744636    5.31172092513953
N        -0.07400757862154    5.65596004137437    2.37915677453529
N         1.75645433772932    5.71456034784260    4.24719154383603
C         1.35503983356741    6.63539702127801    0.66294677887177
C         1.08758311954534    6.11424385524759    2.04260701404840
C         2.10217110228827    6.14660574936566    3.07790160331957
C         3.47059433527956    6.70187104715902    2.82171961704326
N        -0.71152648946708    6.86928655844099    4.80000738668339
C        -0.41113245667602    7.24622221383374    6.18724579796203
C        -2.11077288950338    7.18127031669777    4.48160127262186
H        -0.33696829822306    3.15788782837090    8.14588338980856
H        -2.09362682437569    3.38228651160493    8.03262674275456
H        -1.34746783336585    1.92320402020876    7.37675030875561
H        -3.93020364024512    3.03286010264554    4.46640848430719
H        -3.13802543064438    1.85464563571087    5.52516261580514
H        -3.86299511697230    3.30700285046008    6.21850401558048
H         0.45287756827213    6.53489481223369    0.06421191501898
H         2.15547145422958    6.06541855062504    0.19480651976751
H         1.65264436293937    7.68272404930941    0.69189525128355
H         0.62183748719948    7.00235086202721    6.43056749151870
H        -0.57232186790357    8.31720263307748    6.34384373284570
H        -1.06430683589297    6.69678397410878    6.86348824628237
H        -2.33830332425515    6.89485265862826    3.45599526077037
H        -2.76837953025279    6.62749786099634    5.15005287651035
H        -2.31012459392498    8.25000166584120    4.60669307560041
H         4.06129724097103    6.62266177027806    3.73129680115636
H         3.41798532004282    7.74681840371064    2.51842699254487
H         3.96227766445966    6.14017677071605    2.02975202379635
H        -0.14569683655087    7.48619052522788    4.21260167812375

