47
CSD_code = CEZTUW | q = 0 | S = 0 | Stoichiometry = C17H22ClHgP3S3 | MND = 4
Hg        5.26917124023588    1.14041182383142    1.93095409531798
Cl        3.49701900241595   -0.15046252589020    1.56416363212251
C         7.97712266485497    3.27686730377821    2.58001264673623
S         6.95314405049041    0.33783892946858    3.76931265183312
P         8.36066855210060    1.61594932100953    3.16290693099332
C         9.48731059271735    1.82549914639249    4.57539771631455
C         9.45030328943921    0.78476925586591    1.96506682468762
S         6.81597051722850    1.74972238470673   -0.13347547534253
P         7.64064574107919    3.30688212312225    0.80820491624712
C         6.73733859553434    4.81895778197508    0.35248135813305
C         9.25114079355889    3.61237991271893    0.01312559634136
S         4.67728554550771    3.53469558646401    2.86282098259084
P         6.54175245163877    3.93167156427351    3.44849959876323
C         6.71525551491220    3.58826253905081    5.22000594084050
C         5.82043118382489    2.74018390834899    5.86047370381263
C         5.94311337098562    2.51860272269697    7.22062586236077
C         6.93892960365512    3.15656335320546    7.94121697770833
C         7.81585154313555    4.02310526169897    7.30529413704249
C         7.70756642611148    4.24405966301240    5.94521851071900
C         6.76645525491998    5.73130919603549    3.38429061227670
C         5.66517231586395    6.54096728810728    3.63310382251302
C         5.81424584764158    7.91561719394188    3.65359687848119
C         7.05934639054768    8.48150938364764    3.43090823715762
C         8.15906765735012    7.67329190498443    3.18960580711768
C         8.01799239289982    6.29765925079995    3.17016965682971
H        10.27119842759412    2.53738063417974    4.31963532641602
H         8.94468921987341    2.16172545234179    5.45616179566578
H         9.91581906395380    0.84270751183386    4.77853393240870
H         8.95809878206817    0.66505960237269    0.99871659521192
H        10.38491887723493    1.33621711039683    1.86571454786063
H         9.64479858618289   -0.20319929696619    2.38911587567817
H         7.28606225029631    5.70720685142492    0.66280220088004
H         5.73479022679430    4.82240777913405    0.78343457182572
H         6.65575402110578    4.78313701909846   -0.73687288097719
H         9.05701074187206    3.74464562017047   -1.05220655353615
H         9.69078545363581    4.51688674171425    0.43189160794294
H         9.92783750133617    2.77234520603738    0.14540676451975
H         5.03557447601760    2.25282195831982    5.29579243830751
H         5.25656198551114    1.84920363615042    7.71573889891075
H         7.02999440301129    2.98545317022247    9.00342143701198
H         8.58454731969799    4.52910039992976    7.87087806353873
H         8.38751170550656    4.91625610296606    5.44007272928375
H         4.69886424084762    6.08333250244506    3.79458806658816
H         4.95856134877377    8.54594116112105    3.84296168079941
H         7.17450085613525    9.55498785432927    3.44501520242856
H         9.12937515426024    8.11632488435746    3.01787181348889
H         8.86914481963279    5.65724382518010    2.98054426414388

