30
CSD_code = CHBPTC | q = 0 | S = 0 | Stoichiometry = C9H10BCl2N6OTc | MND = 6
Tc        0.43627949889097    1.58907542435435    2.22232589191385
Cl        1.51445845577832    1.38360584498824    4.20713982201650
Cl        1.50943356989174    3.56029538701264    1.89785757561955
O         1.20406301134882    0.54061201697276    1.23245494166973
B        -2.85081261889542    1.55124506699077    2.19268208299268
N        -0.93041271057718    2.16911767004471    0.73396605113822
N        -2.24143265126075    1.93607918598112    0.83684176300351
C        -0.67822835239542    2.61019335461472   -0.49143266365973
C        -1.86743594812686    2.66692568528700   -1.21014085701401
C        -2.83515900309803    2.23512588577605   -0.32311878529263
N        -1.00802915680232    2.76100286152629    3.33036823807990
N        -2.33047326387075    2.60055974993105    3.18170596119240
C        -0.81797275747900    3.71838187183510    4.23319244883076
C        -2.04683530534060    4.18990171838438    4.68074179512755
C        -2.98146818038684    3.44889690693164    3.98353090904013
N        -0.92642458167748    0.13520913433064    2.89255884131677
N        -2.23790927894469    0.22133049212557    2.65483258592494
C        -0.67145118284654   -1.06119508879398    3.40573924492521
C        -1.85918722645208   -1.77768389307275    3.50606414408128
C        -2.82896668703905   -0.91994599925105    3.02293960021657
H         0.32160428641464    2.85872631364995   -0.78822783784358
H        -2.00230664890120    2.97809706312053   -2.22475108731764
H        -3.89345117481351    2.12923277487265   -0.44903576575852
H        -4.02765403249503    1.50633274312181    2.15258993916994
H         0.17150336866379    4.02068223344048    4.51647984756626
H        -2.22536764252684    4.95688612004835    5.40455551138497
H        -4.05194363245663    3.47470870766810    4.01026543035546
H         0.32882059356069   -1.34090465975599    3.67108847548943
H        -1.99096463692064   -2.77209010048217    3.87762045869301
H        -3.88707611124211   -1.05410447165287    2.92486543713749

