8
CSD_code = CHGACA | q = 0 | S = 0 | Stoichiometry = C2H3ClHgO | MND = 2
C         1.82813563737857    1.18205534576588    2.08424742375268
C         3.24923736803109    1.48769961563865    2.32203604738836
O         3.65285868986722    2.31229285779683    3.10551106968009
H         1.66433469892287    0.22934966422886    1.58544789118146
H         1.24733911389859    1.27049099332968    3.00555340708703
H         3.96071628219589    0.89017748383022    1.71481228284126
Hg        1.09310950038584    2.93141317676196    0.81169166094190
Cl        0.58256870931991    4.93012086264789   -0.26449978287277

