25
CSD_code = CIBLAC | q = 0 | S = 0 | Stoichiometry = C10H8Cl2N2O2Pd | MND = 4
C         3.71055761360859   16.91230770742208   10.29141145162953
H         3.86268435233925   16.26334051081595   11.14670935389245
C         3.38681861380052   16.41409208894177    9.03966231221461
H         3.26791496658472   15.35394086571411    8.88965244374401
C         3.24832023729417   17.30231780876010    7.99581708335558
H         3.04279137634133   16.97926334595294    6.98789027155881
C         3.38771214024472   18.67585281992947    8.21871439044182
C         3.66279346632048   19.12332915250056    9.52885154026695
C         3.85822676548068   20.51159146312889    9.97982920230878
C         3.31133363949909   21.67920341829578    9.41314234545838
C         3.62417814563810   22.92041980409782    9.94928807649194
H         3.20237558060156   23.81267117286841    9.50737437985244
C         4.46059357688787   22.99479981158545   11.05036773762260
H         4.73384257052833   23.94519873249041   11.47667642822311
C         4.91009672857003   21.81625312435795   11.61182848943137
H         5.53264178312130   21.80352630972847   12.50024869047964
Cl        4.79088936006034   17.02423600200514   13.29418424739070
Cl        5.99504313551140   19.80456712187541   13.81121750447301
N         3.86109858357716   18.21159812835887   10.51450140927413
N         4.60216726807657   20.62319954026655   11.10700891833088
O         3.31100947906272   19.44926316014695    7.12746497704961
O         2.44746717055628   21.59549457991341    8.35794425650549
Pd        4.80953978933065   18.92117503662271   12.15746934336921
H         3.12591302787124   20.37424261791827    7.35860492636807
H         2.10709062909933   22.47211567630165    8.13504022026871

