35
CSD_code = CIDVIU | q = 0 | S = 0 | Stoichiometry = C10H14Cl2N6O2Zn | MND = 4
Zn        2.73472595048814    1.13519889123914    3.12031115868248
Cl        0.79616053619000   -0.02206179670531    2.81615667252742
Cl        4.27963692929131   -0.25282744879738    4.03436639800390
O         2.01902059522343    2.87700276434970    1.45665067320671
O         3.99117188069066    3.16524158038913    3.79237185583848
N         3.09033934005922    2.70635090586849   -0.54760640158857
N         3.58478518966635    1.29611923270209    1.26141961453956
N         5.23815601775178   -0.26386696744188    1.17969289306147
N         2.95055533101682    4.40533140139683    5.39662236467838
N         2.02940283580068    2.41967638333426    4.55247719026848
N        -0.02247902892489    1.66014844618842    5.17314953070894
C         2.30379317778343    3.78195640165972   -1.10561496472064
C         2.85598986059978    2.31469137973918    0.77507768721779
C         4.54949014722700    0.68823459672032    0.57869143270987
C         4.79427750450250    1.08552649596822   -0.77634677848921
C         4.03702251713483    2.08572928131103   -1.28209054678090
C         4.03325393286193    5.36174784850651    5.41790492212567
C         3.03644225907412    3.30844163359430    4.53357701497559
C         0.92904142807553    2.56886946389909    5.28209787455216
C         0.83127752543028    3.69486132103963    6.16328792480217
C         1.86475105813431    4.56757636980974    6.18134232542573
H         5.55286079294122    0.59800731198153   -1.36332368907925
H         4.15590557344763    2.44100754139279   -2.29649107922693
H        -0.03679609412767    3.83321866336185    6.78371571021908
H         1.86967796082863    5.44087115710316    6.81908327396260
H         1.56383610345329    4.06453273102888   -0.35824785528904
H         1.79929759528855    3.45187516456479   -2.01444562781084
H         2.93738332425880    4.64123704096382   -1.33246069062832
H         5.04383646715441   -0.44662545455365    2.18273113947039
H         5.98424236911537   -0.73979388647368    0.70362751641929
H         4.81282485187050    4.98396422310191    4.75794314267466
H         3.69205217983214    6.33393593725625    5.05794422039038
H         4.42728024194971    5.46583992987737    6.42955869332873
H        -0.88597938079324    1.75730589626391    5.67787959450673
H         0.08146302646668    0.93817555925036    4.43464680929632

