29
CSD_code = CIFTOB | q = 0 | S = 0 | Stoichiometry = C11H12AuCl3N2 | MND = 4
Au        2.59791244879493    5.47428092524559    8.70787088459895
Cl        1.25634332037965    5.65726064540271   10.53189993203013
N         4.36475356981796    3.35917755924806    9.76037129894587
C         3.96423493484080    4.62734712341557    9.87454507894537
Cl        1.08588006798375    6.44820190690410    7.34994451385856
N         5.37987723703673    3.11124164706256   10.62182913326300
C         4.75812476351331    5.21279361593265   10.85603923050459
H         4.67807496462979    6.21744332074425   11.21454097733393
Cl        4.07949215473432    5.10052809812049    7.00731397905320
C         5.63559749583313    4.23972222536311   11.31433492435511
C         6.64641856617558    4.35857800565883   12.35847830773437
C         6.77334522795370    3.39862490367738   13.36168434247737
H         6.10446862443020    2.55122064396365   13.38844379550859
C         7.72260363374484    3.55537958081046   14.35511240866886
H         7.80948019206828    2.81184781617701   15.13287957037150
C         8.55343682589190    4.66351566904185   14.35709602145323
H         9.29420597888159    4.78096302706058   15.13301359704873
C         8.42427581792237    5.62651979830054   13.36891498706876
H         9.06483702268022    6.49500251669056   13.37324358330512
C         7.47298243650491    5.48114409905603   12.37718835373131
H         7.37081903493088    6.22577869576822   11.60284914458415
C         3.88262615037002    2.35594759875366    8.85874527559901
H         2.92487694405608    2.68124491372779    8.45881736666826
H         3.74756759761253    1.40752442196370    9.37885053366599
H         4.56925922052350    2.23333328287666    8.01796458341175
C         6.09724957469724    1.87050413694306   10.62309362249081
H         7.00772498211049    1.99674605708517   11.20601319109551
H         6.36785720289931    1.59357180841467    9.60311697121993
H         5.50197400898108    1.06805595659135   11.06490439100702

