21
CSD_code = CIFVEU | q = 0 | S = 0 | Stoichiometry = C5H10AuI2NS2 | MND = 4
Au       -0.03585305501532    1.59249369753664   12.16901311764617
I         2.03466093486195    1.50232315439006   10.59434086531713
I        -1.70783817454112    1.18197409652454   10.21704078708778
S        -1.65808730980261    1.73340446148061   13.92278094997614
S         1.16329022153093    1.97879504019823   14.20356811278776
C        -0.35160935453146    2.00152844927129   14.98609522151440
N        -0.49557750642819    2.22656472518210   16.27548356543823
C        -2.25152424952322    0.90714145155655   17.42100176436637
H        -2.20587496327550    0.15170638613265   16.64069172553222
H        -3.27673206501983    0.97523372503985   17.77323172336301
H        -1.62215115412886    0.59779745697880   18.25077091532185
C        -1.81733277477241    2.26266299100016   16.87457633546385
H        -1.80303522444420    3.00764913671570   17.67311406435386
H        -2.52684183889114    2.58939196180666   16.10907461148201
C         0.67475104345979    2.40141100832342   17.11927676292568
H         0.35776542898959    2.92940943120354   18.01975128254918
H         1.39343414485059    3.02775006076342   16.58073781533729
C         1.33956444120478    1.07870054102049   17.48830711941802
H         0.66480761619037    0.44236038310164   18.05372184239558
H         2.21855333263011    1.27895189592144   18.09412945372800
H         1.65563050665641    0.54614994585214   16.59529196399606

