50
CSD_code = CIGXAT | q = 0 | S = 0 | Stoichiometry = C10H29Cl4N5NbP | MND = 7
Nb        0.27506543829399    8.72898729831351    9.89494931810506
Cl        1.33637755096711    8.81988015943807    7.71404545860170
Cl        0.57538448560199   11.07629592376183   10.27783341147360
Cl       -1.66000445774103    8.74815823817587   11.27279537010192
Cl       -0.25163087147495    6.38415579784765    9.29660788344631
P         1.66974679681842    5.85326000482346   11.36686459197786
N         2.41373734864055    5.18668233604611   10.01480584507802
N         0.48299623949741    4.94910536192894   12.06988496788683
N         2.91505792115861    5.56112338692480   12.48408458217183
N         2.02689216208551    8.44510803843091   10.68854942770408
N        -1.44737325666391    9.55264369132047    8.34319089152229
H        -0.84855507538416    9.99719101926353    7.63801250910714
C         3.17882978753650    6.08227899917088    9.15702177580295
H         3.92198979948466    5.49120227473637    8.61712325754420
H         3.69078056945017    6.82960464184061    9.76049666992275
H         2.54239101182409    6.59558928580162    8.42724175288046
C         1.75533363201005    4.14010329623561    9.25198221925069
H         1.29119177645090    4.53031541323075    8.34399633306578
H         0.98419896195284    3.66778147139051    9.85170717032250
H         2.50539425927522    3.39444483403293    8.97802122305300
C        -0.91751807256396    5.32411440798827   12.11731959833008
H        -1.50647249599982    4.77207912818571   11.38032420426472
H        -1.03277493728494    6.39015048301149   11.92485314372009
H        -1.30572925889569    5.10473890515562   13.11476840099428
C         0.74053688434245    3.56891348144289   12.43462865633893
H         0.49399301576375    3.41502601583666   13.48915334397420
H         1.79468306624240    3.34557584414046   12.28260035208913
H         0.13378700420731    2.87866182712051   11.84189286318250
C         4.30955556963860    5.34090958713127   12.17516519330836
H         4.90639410909928    6.25704806977884   12.25639476918496
H         4.40585675400808    4.93552099264500   11.17327110728077
H         4.71507193131924    4.61363465716694   12.88434773096184
C         2.70398735091875    6.02394508657432   13.83954947102250
H         3.08255180659962    5.27437335649130   14.53994466306605
H         1.63715580470875    6.15364631818204   14.01653479015963
H         3.22003108525324    6.96939483952830   14.04177426148085
C         3.17517344151523    9.17225210650818   11.14493554588617
H         2.89105006603391    9.84313268388699   11.97199719856133
H         3.55348317111670    9.77812433615706   10.31953735992316
H         3.96871079592328    8.50234773783827   11.49644528788134
C         1.26038166666244    7.64189176820140   11.50764772882419
H         1.25486114376284    7.91676373491834   12.58006498081352
C        -2.17721384298536    8.47587119581975    7.66843883625378
H        -2.76100504155770    7.92347523458417    8.40870959968894
H        -1.46777176792163    7.79489288019634    7.19344246473470
H        -2.85592841583271    8.87376627361901    6.90410415185458
C        -2.37851530735643   10.58320754356583    8.81103107157155
H        -2.95279504667583   11.00383326323822    7.97723222273112
H        -1.81893940652282   11.38135754637279    9.30076950970461
H        -3.07140515330795   10.14763922198124    9.53180683318187

