74
CSD_code = CIJBIH | q = 0 | S = 0 | Stoichiometry = C31H35ClO4P2Pd | MND = 4
Pd       -0.49880938872084    1.31672653237055    4.80952838852884
Cl        0.71250469900318    2.95445549033950    5.85524193946168
P        -1.83715090689955   -0.18588505902922    3.83934463130552
P        -0.34863132744932   -0.20122957578164    6.58839953534146
O        -3.27670042785736    1.61334581008458    5.23620558762242
O        -2.94739469939528   -2.62875315474954    2.39177454253087
O        -1.73422795993359   -2.13134614207577    8.69182833548954
O         1.94900562817492   -0.05418280699725    5.03894199149268
C        -3.41933845852976    0.44865364202044    3.23002793126011
C        -3.99944344145542    0.22086878669738    1.99316148108871
H        -3.54012078175993   -0.47012288537240    1.30416306714916
C        -5.15524439069360    0.89416040154723    1.63283537788167
H        -5.60975874968508    0.70823842585328    0.67128615677778
C        -5.71749031658354    1.81612605489824    2.49784722872211
H        -6.61842840465763    2.34062522407249    2.21559205487468
C        -5.12676426050106    2.09357060860795    3.72045932782920
H        -5.56594047336368    2.83308131731596    4.37243553767067
C        -3.97208718225894    1.41709459352844    4.08755731958625
C        -3.44784635303519    2.83694219645733    5.93117165015696
H        -3.54902949192757    3.67290104501332    5.23388856132960
H        -2.53977820101975    2.97115533739776    6.52397636371123
H        -4.32066885546732    2.79355317015413    6.59174231273714
C        -1.10697393104339   -1.18101916931047    2.50810712145968
C         0.16366291373409   -0.79660439070703    2.10327021691246
H         0.60424427320485    0.07203231611778    2.58814328255719
C         0.83791514693051   -1.49327268023291    1.11603470028209
H         1.82355802609666   -1.18483801577416    0.80301410441526
C         0.23153167985543   -2.59052118649579    0.53210900322781
H         0.74150159676614   -3.14527133111415   -0.24172967963889
C        -1.03266704569598   -2.99824180100439    0.92932637537688
H        -1.47760287254995   -3.86181574966036    0.45943379041051
C        -1.71059332900515   -2.30328018384951    1.92288878818254
C        -3.65417373535752   -3.68019654862479    1.78109886254086
H        -3.80730467382430   -3.49546922145151    0.71310873247981
H        -4.62124944937179   -3.71352335408630    2.28073601156803
H        -3.14429027560526   -4.64003319594641    1.91457172061922
C        -1.26211566698871    0.11695465516350    8.13922515320245
C        -1.32807064532260    1.47195882931638    8.45004517804786
H        -0.81870762991417    2.17073732531177    7.79298243526724
C        -1.99714370148530    1.92465643682545    9.57274721880101
H        -2.03235885165934    2.97931436352944    9.79884704574714
C        -2.62164429247314    1.00872088633317   10.39811671329403
H        -3.15986838843851    1.33939853674968   11.27443861244485
C        -2.55716685934471   -0.34674886387439   10.11864608686088
H        -3.04282710755559   -1.04039634934958   10.78767972419699
C        -1.87162059479675   -0.80784060835963    9.00084820430998
C        -2.28116131712840   -3.09516947949343    9.55697556491553
H        -1.85917567202363   -3.01966094369286   10.56434933058270
H        -2.01239008296492   -4.06055248648108    9.12942636035122
H        -3.37201057389980   -3.01745148041289    9.61211771673973
C         1.29103935552304   -0.71288047423578    7.18019743912626
C         1.57838787764026   -1.17144353511214    8.45551939190522
H         0.77669789898561   -1.30776265116512    9.16496169716589
C         2.88689747686359   -1.43808180216903    8.82069615527438
H         3.10862006354890   -1.79904162042210    9.81388373260582
C         3.91144185265183   -1.22345036276182    7.91547871957856
H         4.93407744298983   -1.42019653288095    8.20240735678784
C         3.64564495151754   -0.74947547420971    6.64130426611848
H         4.46038430818264   -0.58087293189281    5.95402956638113
C         2.33281616846865   -0.49848321269992    6.26308041356907
C         2.90386881283347    0.64878694276697    4.26249606517890
H         3.56497104172569   -0.04482707379846    3.73069887341530
H         3.49116568350606    1.32635115383886    4.88709711728271
H         2.33102673137933    1.24425781707090    3.54670730349875
C        -2.28627942521562   -1.44427824361186    5.11992156524178
H        -3.00864644525898   -0.98398535434908    5.80195953315052
H        -2.74163539461526   -2.32148490115811    4.65805598786563
C        -0.99864368206922   -1.78074306446212    5.86301282427029
H        -0.23578684516001   -2.12494221054498    5.15263051322045
H        -1.14376873783663   -2.54628156074586    6.62314867395980
C        -0.66241390576067    2.59748555689088    3.19658950598131
H        -1.18751779443058    2.19534464484846    2.31904468880421
H         0.33635637653538    2.92350334546307    2.87835041487045
H        -1.20755700826691    3.48615622352043    3.53926049707663

