49
CSD_code = CIJROE | q = 0 | S = 0 | Stoichiometry = C18H20Cl2N8Pd | MND = 4
Pd       11.95988465386623    1.08197377042112    2.38779651117689
N        12.78543935969112    2.79394226737606    2.88063404161311
N        13.05807204594480    4.84467377662490    3.59617792600723
N        13.78753359709458    6.90779694829390    4.32787700819026
N        11.48120729179709    6.38637808761901    4.26615950918411
N        11.13319009333740   -0.62936455565001    1.89191467667434
N        10.85360038648893   -2.67014672352639    1.15068831220859
N        12.42510307003691   -4.19700474491308    0.43701004641120
N        10.12013615013927   -4.72697104987989    0.40393710623601
Cl       13.27496597884663    0.95571858341206    0.51886927544944
Cl       10.64579827093542    1.21274499808646    4.25663107429844
C        14.12442289930031    3.08424623579904    2.85778448887721
H        14.84541757031061    2.36641982575017    2.50942415195784
C        14.30525848950838    4.35570628139182    3.30098653544338
H        15.18142008164976    4.95395381670857    3.43433534292233
C        12.16581870177554    3.85968198311812    3.32478769100952
H        11.10769350466475    3.96208437829250    3.48588138185656
C        12.76112677438912    6.10979361361975    4.08741471260588
C        13.50921092383800    8.11810825265738    4.80270485319835
C        12.19307551564600    8.50710034061901    5.03056307807110
H        11.96139887967189    9.48585704440799    5.41829340535739
C        11.18521230940286    7.59050683991611    4.74288860960790
C        14.66341679054184    9.02419464565969    5.07036512325505
H        15.59437928306221    8.48269921544149    4.93374533111885
H        14.61064352458681    9.41428253711624    6.08466201417573
H        14.63773399219218    9.86840562195238    4.38291965335300
C         9.74190283685478    7.90347297432092    4.94595881762817
H         9.14599484671358    7.01691262121188    4.75275870249682
H         9.43518777299944    8.69716315370186    4.26630696533258
H         9.56988383934714    8.24667690523249    5.96410012850433
C         9.79449512003660   -0.92078238367691    1.92481641684276
H         9.07717034426745   -0.20829532984131    2.29121934928877
C         9.60947387444054   -2.18614881877498    1.46620672383788
H         8.73197325612023   -2.78257727142875    1.33345476029251
C        11.74833489286756   -1.68860586937665    1.42636522010566
H        12.80460575329831   -1.78838932842746    1.25225430134782
C        11.14697959690579   -3.92772724096276    0.63845756862778
C        10.39595123708368   -5.92929216508812   -0.09220156127325
C        11.70983809705250   -6.30941730135720   -0.34654890236054
H        11.93917713614435   -7.28180301960591   -0.75134330593253
C        12.71850525753595   -5.39306962578713   -0.06092920265651
C         9.24122813136915   -6.83429950464419   -0.36160990124870
H         9.19395896738905   -7.07139497831307   -1.42315177218417
H         8.31754386274669   -6.35031982715249   -0.05974954111186
H         9.35955683848570   -7.76718215523860    0.18643220281863
C        14.15968894706805   -5.69661051051330   -0.29157925909217
H        14.32439303573613   -5.96491962363658   -1.33340493245665
H        14.46720892089928   -6.53901082110946    0.32586628509363
H        14.75968729584058   -4.82736186973910   -0.04093092430414

