33
CSD_code = CIKXIE | q = 0 | S = 0 | Stoichiometry = C8H20Cl2PtS2 | MND = 4
Pt        4.19350314673245    2.22871040317448    9.78575474935327
S         5.30300098924994    0.12631599687779   10.04993332477865
S         3.11955049019666    2.03368887244780   11.91431834982519
Cl        3.13452365574740    4.23292069607183    9.46521103609303
Cl        5.21573720163668    2.48249959610898    7.75260307265307
C         1.35082710714683    2.27627914747154   11.50836175409271
H         0.79156788357099    2.12402299517010   12.43215381059003
H         1.24102088276681    3.30223526096600   11.15862632980821
C         7.06220552249506    0.54850376127394    9.76652904873458
H         7.63951700133945   -0.35406559127170    9.97088734473450
H         7.15788536036990    0.83533917183302    8.71984570150940
C         3.47550880863601    3.64026570435673   12.71847169415254
H         2.94243558158303    4.40489844736032   12.15472816148744
H         3.08827466564470    3.57399574558352   13.73585025341545
C         0.93176821689163    1.30272007496007   10.42637125586335
H         1.50907203099642    1.50275321109014    9.52220849861637
H        -0.12305043075980    1.43348529492901   10.19647086167407
H         1.09995463246100    0.27407303251526   10.73746979424991
C         4.93513260068843   -0.74732284560013    8.48261137734223
H         5.45609455014628   -0.21326063573069    7.68891854392244
H         5.32967008523324   -1.75863318312163    8.58745575328560
C         7.47000657996588    1.69665089903889   10.66653054664840
H         6.87643750192582    2.57715397897741   10.41408626867589
H         8.51990795869730    1.93484191592214   10.51302745861777
H         7.31439897924852    1.44861716929339   11.71415299436792
C         3.44280916432813   -0.74693237345506    8.22361563583552
H         2.90121276893300   -1.21701030822610    9.04134316547268
H         3.22608345786077   -1.28369187465042    7.30294857158276
H         3.09998282122432    0.28292550484630    8.10975749601165
C         4.96494210835414    3.91450788354625   12.69741355358483
H         5.51772846075330    3.12396832278854   13.19982365545646
H         5.17501534294568    4.86001431333803   13.19172062291094
H         5.30097487298322    3.98592941212883   11.66169931466268

