51
CSD_code = CIMFUA | q = 0 | S = 0 | Stoichiometry = C24H23ClN2Pt | MND = 4
Pt        4.52798129951965    5.73358373801202    6.13590359175688
Cl        6.05584467688150    6.33024276922681    7.76731774435715
N         4.25577240443769    3.77984618451247    6.59521750846506
N         4.31625822267125    7.50392582754254    5.17194385651036
C         3.41281736538037    3.16119437071360    5.82669555782116
H         3.17085112680499    2.11412286050171    5.99698266733291
C         2.80772491415664    3.91826322918657    4.75840732176937
C         1.88192854587070    3.56684659698208    3.77603189383191
H         1.49618321025675    2.55972132745692    3.70629855273208
C         1.45342326353575    4.53849388193770    2.87739119289218
H         0.73444946185212    4.26114421663997    2.12004136712912
C         1.90930631761449    5.85236178442513    2.91207770600126
H         1.54359822378952    6.56981153100507    2.19124896403577
C         2.83707512918788    6.21852498407533    3.88712556591113
C         3.49353379065386    7.47152512288762    4.16910553177873
H         3.31598321942244    8.35997438534288    3.56659980559601
C         3.26193087388345    5.23861138235204    4.78678714599216
C         4.82655440654317    3.11442452346003    7.75985534728139
H         5.81098339182819    3.57638859823120    7.91920469742442
C         5.03271820900962    1.63348115489732    7.53144034244295
C         5.99042119917923    1.25248463103248    6.59456359252961
H         6.55302079342095    2.01664736383623    6.07668804128461
C         6.22486437274137   -0.08222217265303    6.32536080551498
H         6.97349806090484   -0.36176658656693    5.59887052206484
C         5.50478275585738   -1.06015578286433    6.99280620624414
H         5.68809906819981   -2.10443103761511    6.78803390460749
C         4.55179922392787   -0.69163899645237    7.92516732493931
H         3.98712755711599   -1.44911292898705    8.44924832080868
C         4.31346969479208    0.64707220684076    8.19192558398654
H         3.56448433805880    0.91174328708099    8.92197339033837
C         3.95099382332888    3.47798299468437    8.96180153874609
H         4.37195005850761    3.06420647667554    9.87385781480612
H         2.93360667681900    3.11579015714698    8.82652431748765
H         3.92266189223200    4.56401568788252    9.05233329673475
C         5.08403907491233    8.70747346209072    5.46720266900261
H         5.24634872182604    8.70162277741644    6.55432895093525
C         4.32920323518357    9.96850346173392    5.10949749833900
C         3.18326715899398   10.26406617529505    5.84370845427675
H         2.88303550917946    9.59880214028424    6.64113946153388
C         2.43282965260469   11.38923629731918    5.56161355208603
H         1.54660307391548   11.60427930885790    6.14011563536745
C         2.81956462661782   12.24121023188306    4.53972498002510
H         2.23612374926387   13.12222124163434    4.31709576784563
C         3.95745356173791   11.95750033813265    3.80665621826980
H         4.26553652912898   12.61783280491638    3.00918533205330
C         4.70735017903729   10.82630433448372    4.08622327106296
H         5.59083391490377   10.62408020470859    3.50104111987497
C         6.45308904351462    8.54949544849700    4.80079280200649
H         7.09293441177729    9.39102595785350    5.05123787122697
H         6.35395568320890    8.46930575956215    3.71996865518114
H         6.91593430580787    7.63633628589991    5.17493673975652

