26
CSD_code = CIMGEK | q = 0 | S = 0 | Stoichiometry = C6H15AuBr3P | MND = 4
Au       -0.07474572711677    0.34598450199574    2.43598400401669
Br        1.02284768048989    1.68713544934382    4.15176593023646
Br       -1.32085660934024   -0.93675722298054    0.78766247014232
Br        1.73680329666639   -1.30128215646669    2.42541008617669
P        -1.74800420687204    1.97658019826195    2.53482876052548
C        -1.11455037593213    3.66825056175382    2.25232199276063
C        -3.14308471593783    1.74785689094271    1.36811030619101
C        -2.47828036785351    2.01062288818164    4.21121765745895
C        -0.45236439414300    3.78594064947897    0.88347794982794
C        -4.15359132631524    2.88841753731443    1.34187490923319
C        -2.86495348546524    0.60912845818618    4.67263652712750
H        -1.96047210605229    4.35644943907531    2.35191786821754
H        -2.71106593409685    1.59448044813957    0.37407097321820
H        -1.73336940293508    2.44648295037564    4.88420953274197
H        -0.39635833018046    3.88788793352948    3.04780736096507
H        -3.62631475612956    0.80545248061774    1.64698794623531
H        -3.35071803911848    2.67155129459696    4.18324100010910
H        -1.15350632749924    3.56573480319729    0.08001917597936
H        -4.98528334417312    2.60217213137052    0.70204868831027
H        -3.33092062555339    0.65318156754923    5.65407758241040
H         0.38746960821272    3.09518601736442    0.80320839759006
H        -4.55196195269977    3.10131287061101    2.33183189779902
H        -3.56446406225694    0.13970675454766    3.98193328128799
H        -0.07029526277108    4.79368164650505    0.73895811282177
H        -3.71844927920005    3.79858673460464    0.93580186677094
H        -1.98290995372621   -0.02734482809770    4.75119572184729

