40
CSD_code = CIRHAP | q = 0 | S = 0 | Stoichiometry = C13H19Cl2N3O2Zn | MND = 4
Zn        4.34931638418303    5.15281142277992    3.33977899957912
C         5.40378657776486    2.90276530386115    1.79962185164862
N         4.78253990649718    3.15771390043548    2.94065434466494
Cl        5.31365537905779    6.37124740158440    1.78092723893120
O         5.53065748977385    4.87834437357376    4.97227536118215
O         4.75390946975441    4.30138376195571    6.97516361935639
Cl        2.46983904667591    5.34710448611412    4.47030666168639
C         3.45604694076598    3.62879271987108    0.56255852059387
H         3.07952826309349    3.32090093418289   -0.41446414438109
H         3.29711812401288    4.70477569967040    0.67271256675446
H         2.90533985792846    3.10562580456463    1.34131696778769
N         4.86011585456818    3.28755037632063    0.63204405262191
N         6.60304657396127    2.26576973084592    1.77793000501531
C         5.64995859497097    3.85989227449524   -0.43963922194977
H         5.41513915982749    4.92422145106692   -0.51574338092978
H         5.41928572940310    3.36766629768352   -1.38642923204589
H         6.70898424829690    3.77213201266308   -0.22439385882812
C         7.01907270875124    1.39986166885473    0.70025478086904
H         7.24464072832387    0.41029732273655    1.10954047715498
H         7.91871332025585    1.77690289706690    0.20692642289945
H         6.22272638811544    1.29955223344766   -0.03164266959029
C         7.47271500181248    2.27184103408664    2.92977601941641
H         8.50352936346860    2.36414393394379    2.58310271946513
H         7.37978954924899    1.35488676990057    3.52131624225709
H         7.24050225744346    3.12778925047836    3.56013465703985
C         4.77403061358199    2.25121499732875    3.97727532152414
C         4.59456813815184    0.88882243042772    3.68742628511264
H         4.54636516354586    0.58702988342358    2.65030212195424
C         4.44930652595114   -0.04595545694703    4.68630843435558
H         4.31260331290813   -1.08593255539561    4.42819560785787
C         4.46136859810754    0.34409728968568    6.02077093891534
H         4.33377974515381   -0.38790269515182    6.80258018437707
C         4.63215705696632    1.67353307745668    6.33287754002125
H         4.64751113375201    1.99668467427895    7.36138834919892
C         4.80886200069492    2.63562527607391    5.33347440338750
C         5.04441283374456    4.02705104747415    5.71828233891543
C         4.86642954688369    5.66417660239156    7.36921148369852
H         4.61638510683702    5.69184912013676    8.42643811591159
H         4.16394198416748    6.27057701139016    6.79285773979975
H         5.88062132159476    6.03035623523758    7.19868213376830

