23
CSD_code = CIRPAU | q = 0 | S = 0 | Stoichiometry = C8H12IORe | MND = 6
Re        1.18467660403936    2.29149158781414    5.74575629374047
I        -0.98717404068804    1.00704302848212    6.57810543487177
O         2.48636588725513    1.36158498775849    6.22784305775147
C         1.37690753564213    2.86623181978437    3.69954613732590
C         0.54013841022736    1.90248969254948    3.73090768698402
C         0.68466972038824    3.86043645895266    7.12866092468702
C         1.48209283174397    4.34250597915853    6.25575790756241
C         2.16864538732829    3.79093990294181    2.86980128547631
C        -0.33633978760214    0.96358610249382    3.01356013202415
C        -0.10790557826484    4.04240463101254    8.35463215797041
C         2.29385218088448    5.49308784831475    5.82316923787453
H         3.16154583736480    3.93742399757536    3.28917704373302
H         1.67213300455292    4.75886982313174    2.79803346061491
H         2.26642680547380    3.37553111081269    1.86637061546760
H        -1.38417412048503    1.20374565362145    3.19593997588168
H        -0.16433881969185   -0.05422740117909    3.36253573317887
H        -0.13538279277943    1.01900910267031    1.94347320494184
H         0.15989768897214    4.98776496832904    8.82708540710635
H         0.07915570980056    3.22408420652348    9.04940365798163
H        -1.17362410763596    4.04433612294447    8.12397928075282
H         2.33895650508349    6.22368543642884    6.63136280538184
H         1.85587256955802    5.96838399581459    4.94619235232620
H         3.30550256883456    5.17579094406493    5.57770620636350

