49
CSD_code = CISDUF | q = 0 | S = 0 | Stoichiometry = C17H18ClN6O6Rh | MND = 6
Rh       -0.43396742736944    3.13784118962054    1.27128488239743
Cl       -1.52112921198426    3.59712511961881   -0.67565726189359
O         1.75917044986382    8.89427176663357   -0.25791527663034
O         0.02543486540615    8.84783563221328    1.02437824117377
O         3.84223035228014    5.60951134447388    1.71574421850244
O         5.62641152619057    5.53809449254396    0.51122183629392
O         6.38368118946913    1.05937708554451   -1.23749408499127
O         4.69171840253486   -0.17019196100808   -1.74349134441305
N         1.70346102261738    4.94683585380623    0.24492883317674
N         2.00689164516150    6.22222851280342   -0.00634820418836
N         0.06782269706800    6.07714154022366    1.02720898415085
N         0.92835739550564    8.32727160063482    0.40262355283119
N         4.51818868441980    5.17492276753450    0.80748762413350
N         5.19643578645633    0.85140500378444   -1.33447121074817
C         0.51206024618401    4.80803826360006    0.88554268264170
C         1.00450609948574    6.90072569552932    0.46587575101010
C         2.57360401095705    3.91875067853674   -0.11226739128999
C         3.95848456613554    4.05927444657928    0.06539926422173
C         4.82334999382966    3.06550171478458   -0.35982633796537
H         5.89126321657861    3.17983554690416   -0.23561214176382
C         4.29894042561676    1.90894955562951   -0.91796611800875
C         2.92379760741976    1.73980840308168   -1.06519955411249
H         2.55189530944963    0.82497632063650   -1.50139583924370
C         2.06473047801190    2.74804078252507   -0.67926818046899
H         0.99323567668611    2.65470578080453   -0.83286206300333
C        -1.19335556219761    6.42633265343362    1.62332477535416
H        -1.72008197910343    5.49128830081552    1.84328352323813
H        -1.78530830627708    7.02459521461666    0.93091063639537
H        -1.03816787959422    7.00228009924653    2.53590100342011
C         0.03427168612658    3.00312727476094    3.36570933698901
H         0.22044951253890    4.00577858097106    3.74901548870126
C         1.05018609250383    2.41390331150255    2.61891881867877
H         1.97608177786552    2.97883823433856    2.50470253922043
C         1.23826005844841    0.92616677539244    2.43791920521681
H         1.66471859369691    0.50649453365335    3.35502382407488
H         1.97396255411636    0.77280389936559    1.64388681198296
C        -0.05905878692474    0.17804396130011    2.07302783426022
H         0.20093037889234   -0.69843257436454    1.47739162819255
H        -0.55776940644511   -0.18157271823184    2.97353982838296
C        -1.02635109497505    1.03520556685284    1.28688867317465
H        -1.13936993797235    0.76164256140392    0.23751890958574
C        -2.02765347527643    1.78512419187443    1.85946043295551
H        -2.89027830789331    2.03944472507023    1.24371558065216
C        -2.27054295054173    1.93636180527351    3.34244961322205
H        -2.76298363682591    1.03307435269332    3.71674544133477
H        -2.96743219817742    2.76577005231448    3.48830246530920
C        -0.98869777955177    2.21152171619469    4.15161400631133
H        -0.53538964163813    1.27621466854406    4.48073067997308
H        -1.25749471876982    2.77181567594558    5.04869808156054

