47
CSD_code = CISDOZ | q = 0 | S = 0 | Stoichiometry = C17H19ClN5O4Rh | MND = 6
N         0.88751754881138    7.74120474162365    2.83132368070572
N        -0.06228675854989    8.68141964564712    3.05133038001031
N         0.74356317679968    7.94078298075217    4.94504195521991
C         1.41056161834267    7.26094175215100    3.98497957158780
C        -0.13677545412972    8.77862718444872    4.33390712020957
H        -0.80969716749157    9.43402265040892    4.84729299467875
C         1.23082409566436    7.36984311006991    1.54033304883468
C         1.23251266942267    8.31515788621563    0.50153693936542
C         1.47708943453025    7.92684975024714   -0.80372815708711
H         1.46070861063991    8.65361905020166   -1.60366374528272
C         1.77540887700308    6.59789227858901   -1.06866611224994
C         1.82088246581156    5.65498142640264   -0.04161677833263
H         2.05582911038529    4.62996457497208   -0.28534902058737
C         1.53514830927127    6.03538171254685    1.25083133424053
H         1.51496745754409    5.30397403623414    2.05593809382234
C         0.93054825098417    7.76634898454319    6.35889131121155
H         1.53256846842308    6.86403053900903    6.50930240593856
H        -0.03415914636572    7.63985420925617    6.84999832047350
H         1.44461803513369    8.62946402589022    6.78669822232165
C         4.32830149628944    7.13436520251976    4.60200541823239
H         3.96040448063249    8.12944309208431    4.85576530910855
C         4.35094536387022    6.79239581095783    3.25105416741200
H         3.96849543116489    7.53599018906254    2.55201574703958
C         5.34931484061652    5.82781537335080    2.64697154888395
H         6.28633199424449    5.89704291225624    3.20096582381099
H         5.56021289567518    6.13402458131647    1.62073686823684
C         4.83913655043745    4.37292279456431    2.62952447431053
H         4.31776453041463    4.19190129451450    1.68655330346703
H         5.68700194400035    3.68099887810583    2.66598819091362
C         3.89286547968496    4.04908797536386    3.76233028283608
H         3.18026006409314    3.25632024962514    3.53342139983435
C         4.10585707135733    4.36016819817065    5.08463420200045
H         3.52735429262932    3.82112905836433    5.83446849643457
C         5.36596827260870    5.02208673524382    5.59457932362325
H         6.20072353947805    4.73830411060456    4.95298369766941
H         5.58492156579239    4.64511588545216    6.59533757451060
C         5.23515109009605    6.55506927288872    5.66297270197586
H         4.82991810265554    6.83275417573692    6.63981979231575
H         6.22374821093336    7.01970814666365    5.58148527133135
N         1.10213213663000    9.73390729426944    0.77081228904376
N         2.06156737767105    6.19120162295895   -2.42310322675130
Rh        2.71041798784887    5.81083698112978    4.21375870258204
Cl        0.89567380314807    4.52165743971833    4.69262939564338
O         1.66248038468604   10.14859002198330    1.76229882123921
O         0.51049354984342   10.40221676801887   -0.03906929152168
O         1.98907839071260    7.03611659457916   -3.28809699616227
O         2.36204955056011    5.03026880127431   -2.60232485311355

