81
CSD_code = CITTEG | q = 0 | S = 0 | Stoichiometry = C40H28B2Cl2F2N4O2Zn | MND = 4
Cl        5.96720055584443    9.06714395956362    6.12238984255005
C         4.69602480552416    6.29074301045896    4.41776163777894
H         4.76665657858333    5.51142005611931    5.15838269190408
C         3.61742615535081    7.18368728399607    4.40062652249681
H         2.86751339588287    7.09465939164419    5.16991676744343
C         3.51944612633629    8.16096957137272    3.44012452223311
H         2.69734467101313    8.86041545990640    3.44250638319474
C         4.50539601899735    8.23862884447130    2.43424870774820
C         4.57334714978975    9.11530502238431    1.33516878352791
H         3.80410776467041    9.85885449747735    1.19951097113462
C         5.61732610017471    9.01375353869528    0.44410509465759
H         5.65175824572652    9.69271063823931   -0.39561565406640
C         6.64677915743466    8.06995063373394    0.56268629863825
H         7.43809350573249    8.02695901627130   -0.16792821989032
C         6.62299389496018    7.20248089514462    1.63671939324573
C         5.55065849662157    7.30871936422676    2.54966711941144
C         6.87465716830635    4.05175432437750    3.24664557836857
C         6.76881836377326    3.39469831377076    2.02338725913113
H         6.82752508410421    3.97387461009303    1.11334161942901
C         6.60274326217262    2.02314381594697    1.95215576201619
H         6.52651314928795    1.53835339422960    0.98910864072115
C         6.53340876815020    1.27250333746800    3.11277303405368
H         6.40305186823025    0.20099644852925    3.06214497471313
C         6.63587397765188    1.90533717234399    4.33922793207701
H         6.58591950970034    1.32749474431258    5.25135050811161
C         6.80612963633664    3.27745596260880    4.40227822169213
H         6.89071909186654    3.74766687661263    5.37030879476229
C         8.09631392273929    6.24090605823249    4.38695639355717
C         7.82512611875818    6.46682159254637    5.72549552532686
C         9.72490924598568    7.64442218885221    6.14045387107193
H        10.28929499749201    8.22448899376675    6.85636966074826
C        10.17090953625701    7.40241943731485    4.85536060196150
H        11.13262613928772    7.77113628266850    4.53623043807482
C         9.33538972939051    6.73257696812404    3.97461085273428
H         9.62074769960631    6.59524023252756    2.94305691557019
B         7.04221288774309    5.64997818756047    3.29528324319500
N         5.65366508017484    6.38646748677526    3.52241511062928
N         8.55564504247727    7.17624690569278    6.56610497849067
O         7.45546265670999    6.23375822350804    1.95575977220618
Zn        7.14087038529845    8.14878012767463    7.79974432580718
F         6.71847749979755    5.96858135668912    6.30934861748662
Cl        8.31460745980509    9.06757725071032    9.47675324071234
C         9.58490069130615    6.29072515550212   11.18327596703038
H         9.51430431171589    5.51147711904602   10.44257075337476
C        10.66390938699336    7.18315906618371   11.20110275421398
H        11.41422048323637    7.09384833427864   10.43223423326545
C        10.76179827840907    8.16030998974836   12.16175261834113
H        11.58418640336436    8.85942121538941   12.15984676675425
C         9.77532929750488    8.23833853981140   13.16709426540527
C         9.70709613624987    9.11503136680750   14.26614298635270
H        10.47651246584522    9.85832229636999   14.40221437620041
C         8.66263308523425    9.01378946758310   15.15667518807043
H         8.62800745364218    9.69273088853202   15.99640068592879
C         7.63301871038507    8.07021375334475   15.03765141470958
H         6.84138153632858    8.02741804859706   15.76792708345120
C         7.65707561287784    7.20272522685288   13.96363795909052
C         8.72979603528077    7.30880161527292   13.05111696258728
C         7.40578843809259    4.05227689024531   12.35285369120191
C         7.51254498027705    3.39477967602826   13.57578937243597
H         7.45405274645513    3.97355665232177   14.48610606511034
C         7.67928720109727    2.02326978223482   13.64635878633599
H         7.75631372845864    1.53811776488988   14.60915897563948
C         7.74841042187003    1.27313785307520   12.48539746544885
H         7.87945940620158    0.20169195543047   12.53551178519238
C         7.64502366431813    1.90642129785213   11.25925475406410
H         7.69474962708520    1.32899180195542   10.34685917511267
C         7.47408276854031    3.27848021640359   11.19686954518611
H         7.38863860241267    3.74901041867369   10.22907726781629
C         6.18444212291713    6.24176376610019   11.21288689335701
C         6.45605451207518    6.46768909697354    9.87443649090943
C         4.55635135922407    7.64519450011337    9.45885618422262
H         3.99211865659099    8.22513477146566    8.74271677338876
C         4.11000158702988    7.40328792612540   10.74384782944501
H         3.14820375425600    7.77204412622923   11.06269200422514
C         4.94524952518094    6.73345073862030   11.62486228885822
H         4.65959419368772    6.59616432943812   12.65634126029135
B         7.23812140968717    5.65050233831484   12.30476069166606
N         8.62688942599809    6.38673511852302   12.07819153864592
N         5.72574686016171    7.17701893168649    9.03356855656908
O         6.82456456038360    6.23414312452366   13.64424472537120
F         7.56294965698045    5.96954336344996    9.29097713003548

