32
CSD_code = CLPYPZ | q = 0 | S = 0 | Stoichiometry = C12H13Cl3N2OZn | MND = 4
Zn       -0.47436386494004   -0.28866417205685   -1.77676991952260
Cl       -0.65728669075077    0.61548502804580    0.20547850758520
Cl       -1.29367196326625   -2.40524670235605   -1.94287464928591
Cl        1.55522084130621   -0.28159012922371   -2.75582407992744
N         3.67131311659444   -0.75409333360127    1.12142630838121
C         2.38966795573824   -1.05149210899635    1.21270326213636
C         1.74618399098475   -1.93100025199348    0.35043207461686
C         2.49652235195913   -2.49992888347789   -0.67097033047997
C         3.84572681993030   -2.18688074124811   -0.77681854410689
C         4.37784614674280   -1.30589521692805    0.15364022876947
N         1.87908444978802   -3.37382522963818   -1.61068281026890
C         0.97619891612341   -4.27650359435663   -1.19873612183667
C         0.27290988585514   -5.05317886616689   -2.07770705299847
C         0.46875272271407   -4.88712134241085   -3.46020161113514
C         1.46335393717530   -3.97117937378057   -3.85690390568143
C         2.13190083454876   -3.22887730710853   -2.92600085597679
O        -0.17169206852307   -5.52517457079942   -4.41888227005851
C        -1.35096370640831   -6.27476460815468   -4.12573200387349
C        -2.52908672762394   -5.35839079097842   -3.82219275235685
H         1.84056464903848   -0.56061670398210    2.00335411250978
H         0.68959712408061   -2.12548977390457    0.45324788227705
H         4.46347897039359   -2.61511201913372   -1.54988819448017
H         5.42223506600593   -1.02838385212002    0.11599451452637
H         0.82411182076829   -4.36523868046034   -0.13399061806433
H        -0.45699104209018   -5.73944476209598   -1.68524608986856
H         1.64845840014525   -3.82226343377775   -4.90756006564077
H         2.83109372914277   -2.45846688444709   -3.20886573472067
H        -1.53262194856923   -6.85064341375030   -5.03627569436791
H        -1.16325028532322   -6.97364213815778   -3.30373118876699
H        -2.28705535732382   -4.66008683599391   -3.02262648374649
H        -2.78405714440388   -4.77912804536327   -4.70545578727869
H        -3.38998092964304   -5.95316126178387   -3.53134012608067

