26
CSD_code = CMTPPE | q = 0 | S = 0 | Stoichiometry = C8H15ClPdS | MND = 5
Pd        3.27847267996551    1.49259034178376    1.42272774366476
Cl        4.71931597612041    0.19638834301889    2.57213999547488
S         4.87523971434907    3.31012870721850    0.90396346132838
C         3.59070405926178    4.45058847588079    0.19907384392862
C         2.39286844239658    3.69341499307447   -0.40335611642144
C         1.84350543388542    2.80836608859399    0.69988600891955
C         1.41028313146057    1.48704689274815    0.52585416405250
C         1.37785946364116    0.66458466466049    1.68586419207804
C         4.78666656752584    3.70624318560770    2.68373591880990
C         1.33645967344145    4.70686087098123   -0.86288467471108
C         2.88473210377636    2.86430132475764   -1.59542590569017
H         4.09646537566523    5.04336013020575   -0.56355004549638
H         3.27579131171300    5.10864135080763    1.00841312019916
H         1.50052970972729    3.35164242867708    1.58794355176194
H         1.34879844768281    1.02781924180811   -0.45765875697933
H         1.03152799419651    1.08556325627900    2.63386867489623
H         1.17720864172860   -0.39466907237183    1.56156094261246
H         3.77800173208012    3.52814924541166    3.07749597002232
H         5.48533680303142    3.02185388318895    3.16442381795750
H         5.09729749579930    4.73628273537831    2.84305462187392
H         0.47291655637302    4.18472227927707   -1.26770073409387
H         1.00425601815391    5.32466404409048   -0.03128514208121
H         1.74210218160380    5.35584544776183   -1.63525734404754
H         3.54766123384683    2.05612749940691   -1.25296646063728
H         2.04865327620728    2.42937161400336   -2.13733835915558
H         3.44134597637180    3.49521202775311   -2.28498248826966

