23
CSD_code = CMTZZN | q = 0 | S = 0 | Stoichiometry = C4H8Cl2N8Zn | MND = 4
Cl        2.07755442447810   -0.40611862291172    3.82850326919546
Cl       -1.18399947517892    1.77495887927104    3.25369158900864
C        -0.31681965357575    1.28305068896779    6.43492588084623
C         3.61279085442813    2.42412918529292    4.20638504644373
C        -0.81191777712234    0.59569925075458    8.80130757779918
C         6.02514851526678    3.11525410619993    4.19952483622594
H        -1.18110957432147   -0.40427121521015    8.57284007664491
H         6.08319039455681    3.40022697633720    5.25010400267786
H        -1.65909230611625    1.26207727860597    8.96593044507246
H         6.57435258228070    3.83124723332173    3.59126364124770
H        -0.19029428557704    0.56235495659839    9.69377784676288
H         6.45340047245054    2.12055728965514    4.07369915712931
H        -1.26792698144428    1.12491664291657    5.97082425273052
H         3.60535418041134    1.71641413996776    5.00794244692275
N        -0.00421989858757    1.08018007797902    7.72383551809639
N         4.66340997697657    3.12286161842442    3.76041889750317
N         1.27599970139204    1.40910102003831    7.87337972372182
N         4.23211511986165    3.88373305873591    2.75415884094038
N         1.71764562917571    1.78526349998413    6.75239435994398
N         3.00218370552407    3.66525724121836    2.59517512306739
N         0.76295606494575    1.72512549582628    5.82911590691252
N         2.57313186286231    2.76738493539295    3.47445004551836
Zn        0.93224646733266    1.48519626264915    3.69885151558907

