46
CSD_code = CODWOJ | q = 0 | S = 0 | Stoichiometry = C14H19ClCoN5O6 | MND = 6
Co        1.06971519424196    5.64188733630137    8.34287509402105
Cl        0.17384709560890    3.90257386645638    7.38765171986862
O         0.17373219670449    4.83810649947420   10.81077121765846
O        -0.07194697039518    7.32608823121779    6.49714222790461
O         2.16554394185208    6.42835112183659    5.72836117576595
N         2.33833974790027    5.70464821582723    6.85245885973320
O         2.41675803497457    3.82548324950285   10.22321192658925
N        -0.27403577433116    6.67391390291363    7.58847893463339
N        -0.15229610812980    5.44369814014311    9.72335586643291
N         1.83890155914087    7.21087735592918    9.20265342479126
N         2.46075810331580    4.44712200876847    9.02855949568397
C         3.41662781367397    4.18311915061074    8.20732075439666
C        -1.38928432516725    6.67827547936058    8.24871337706284
C        -2.61153841834057    7.39458339824645    7.77750439371731
H        -2.39847449706939    7.85949132456281    6.81779671405779
H        -2.90871321061399    8.16055667043825    8.49267126771670
H        -3.43555041688087    6.69303200228924    7.66192358407083
C         4.50223898205282    3.19802594145512    8.48041947027445
H         4.37425813263690    2.78554205887979    9.47771835734545
H         5.47898570283481    3.67277650941773    8.40626756849690
H         4.45896705047222    2.38892016321322    7.75337328541670
C         3.34681988637927    4.91041160438286    6.95148667198287
C        -1.31846782362502    5.96038611569673    9.49356930696475
C         4.35993955213734    4.71039422059301    5.87571623101415
H         4.12417066144005    5.35365864036767    5.03208048899808
H         4.34925644458791    3.67305745845026    5.54597564384848
H         5.35882818374067    4.94261257821915    6.24117021416326
C        -2.45938773379723    5.85112122452182   10.45022042164699
H        -2.14236410191123    5.26400330498077   11.30896547730636
H        -3.30423262705262    5.35986990679332    9.97105902510940
H        -2.77806294566403    6.83759597018164   10.78435885617831
C         2.64265267240086    9.45658204247656    9.06530550998391
H         2.79812888822371   10.34003337514293    8.46828523393915
C         2.05980003688076    8.33323313383264    8.51182409950957
H         1.74268379609054    8.34992000475926    7.47758447019816
C         2.78062418317698    8.26114132286787   11.12690191172529
H         3.05212988530444    8.20972033125611   12.16928947657394
C         2.19128919806936    7.18640518805697   10.49192161149868
H         1.97919363973341    6.28331452551729   11.04826426467134
C         3.02099920482765    9.42776043552396   10.40469478564648
C         3.65249372121630   10.59001905446252   11.08372405637045
O         3.79882280365438   11.64654429040923   10.27769718364528
O         3.99876873182706   10.59060247019935   12.23597253062691
H         4.20909729725392   12.38196165102336   10.75952785454056
H         1.22036254811266    6.84956580960172    5.85181415482640
H         1.48922006251168    4.10241271383964   10.60986180339304

