28
CSD_code = COKNAU | q = 0 | S = 0 | Stoichiometry = C10H11Cl2N3PdS | MND = 4
Pd        8.63473083260697    3.47319227622133    4.87966374793061
Cl       10.10792180915701    2.36121644031256    3.64665745877847
Cl        7.27824718920815    1.73370422683432    4.88065399238834
S         7.03043088411423    4.81929381744485    6.05481556031307
N         9.15700021516781    6.30881761357640    5.23455346254989
N         9.73576895062586    7.40362909445387    4.80893745646179
N         9.73050321763493    5.19466269035722    4.79872212391218
C        10.74657322170200    6.99841179863613    4.03956555232718
C        13.34343613192460    9.69964060275466    2.07778501724238
H        14.00491923872091   10.39100788133495    1.57759387307267
C        12.34414961964710   10.17542801262201    2.91216274085255
H        12.22659579754017   11.23823560749900    3.06319734011177
C        11.64258377532094    7.91836022343031    3.36255711953642
C        13.49284785057423    8.33559808540384    1.88551548044298
H        14.27066153967385    7.96382096362056    1.23541144480221
C        12.64934686276354    7.44505644957519    2.52240924888610
H        12.76971440754428    6.38433980646366    2.36596122549317
C        11.49686995910310    9.29240884725920    3.55227003049473
H        10.71509442855961    9.64794423453027    4.20542128636424
C        10.73681049733525    5.58868493033963    4.03406720988469
H        11.36247161085361    4.86999580474509    3.54320158669483
C         8.06994961632576    6.32664497331259    6.16735849416007
H         7.46737121594045    7.21876306107162    5.98356565844977
H         8.44694305783208    6.34276720217763    7.19663823229913
C         6.14457553271019    5.13634726236444    4.49445548999432
H         6.84597592285364    5.29440847425736    3.66922921223827
H         5.48645614868534    5.99254598818815    4.62005216319140
H         5.56005046587554    4.23607363121259    4.30547779112683

