39
CSD_code = COSBIX | q = 0 | S = 0 | Stoichiometry = C18H14Cl2FeN4 | MND = 6
Cl        5.85873555265513    3.68904632227305    6.00368382365379
Fe        3.78253805855940    3.88613448181460    6.50580650534012
C         3.16955023693124    1.42348976674066    4.77163741633737
H         3.16036175916554    0.85818256234387    5.69167766562307
C         2.95763251597955    0.79950669853659    3.55632091884973
H         2.79860541217789   -0.26556965243961    3.51415462272139
C         2.95976064852019    1.57305249252238    2.39739872235786
H         2.81195250578644    1.11323315783200    1.43186335505646
C         3.13878935097449    2.93165453750334    2.50923574947501
H         3.12906558095508    3.57518895458189    1.64371495371874
C         3.33347601981642    3.49642248886545    3.77960761465803
C         3.45615622101210    4.88995392308262    4.02692962242829
H         3.44014500980253    5.61484474494960    3.22403479500494
C         3.66216054773637    6.47760380761981    5.80934025492793
C         3.53154417087234    7.68331855832516    5.12637850099740
H         3.33122474894009    7.69523131628160    4.06653742143518
C         3.65575093664280    8.87120900771049    5.82294349224185
H         3.55675325229878    9.80928276240141    5.29815222561822
N         3.37749668999580    2.72380524438436    4.89577282958583
N         3.57379525803155    5.20282907063177    5.29089151793751
C         4.39566755571289    1.42358020344153    8.24008137398364
H         4.40628697297540    0.85841084547578    7.31990948772892
C         4.60678375746168    0.79954557911427    9.45550553213980
H         4.76634672796851   -0.26547701468759    9.49768808083092
C         4.60328072782492    1.57295424874840   10.61447001407613
H         4.75023444558246    1.11306650777563   11.58009900003814
C         4.42391677216382    2.93151081768121   10.50260222522873
H         4.43250844991169    3.57494588125819   11.36820131233200
C         4.23022166419585    3.49635520774638    9.23212922387363
C         4.10740232197044    4.88988561265629    8.98479927214954
H         4.12249274847524    5.61472570813532    9.78775206599919
C         3.90232949681173    6.47759765542923    7.20232706207273
C         4.03303345852575    7.68329626808877    7.88529490887307
H         4.23345316985719    7.69518284694857    8.94511516011737
C         3.90893772779603    8.87119717943136    7.18873141952680
H         4.00810466172531    9.80926298894790    7.71350188801153
N         4.18729459143714    2.72380402721622    8.11591655025196
N         3.99065725639259    5.20283219363039    7.72077622805793
Cl        1.70615301635651    3.68800299699998    7.00681718674150

