45
CSD_code = COTDOE | q = 0 | S = 0 | Stoichiometry = C14H25IN4Pt | MND = 6
Pt        1.07908711314372    3.61550544785239    1.52906037306687
I        -1.62621844762040    3.61550132755690    2.09202318677028
N         0.82857436294369    2.06626983503490   -0.21722858363976
N         0.14227919807552    2.42265984272849   -1.31917001456331
C         0.26035341044861    1.49450507897729   -2.29749077387585
C        -0.40325091597392    1.59683971929282   -3.62134460729220
C         1.06721042749227    0.50308765519886   -1.79122382524309
C         1.40155929687004    0.90115603584644   -0.48752226307882
C         2.24104896797619    0.11811478400436    0.45414418647380
C        -0.65757001249716    3.61550030291225   -1.33813125208422
C         3.10010443905139    3.61549661243041    1.09208187955764
C         1.31256355238990    2.19159328581953    2.99049230737079
H        -0.06000952823382    2.47385671459086   -4.17038797108104
H        -0.16409011907646    0.71347261403080   -4.20668190102529
H        -1.48656524989973    1.65488194985948   -3.51463450058166
H         1.37775140022450   -0.39441461791322   -2.28514442302788
H         2.78763373752175    0.76895924961606    1.12690118267698
H         2.94209768210513   -0.49471975963653   -0.10806237819533
H         1.61270013845606   -0.54355803193296    1.05050365874620
H        -1.27431251537617    3.61550067501265   -2.23638348099372
H        -1.30276371597924    3.61550064697847   -0.44405433483830
H         3.18981887582254    3.61548678528706    0.00249659382587
H         3.63020043663405    2.74188692592635    1.46878976483769
H         2.35066975017445    1.98173301287162    3.24790721721633
H         0.79100932029258    2.47798723520789    3.90371444965280
H         0.83952493207324    1.28705529830041    2.60204789925098
N         0.82858106431432    5.16472713599258   -0.21723257151632
C         1.31257110819843    5.03940625361973    2.99049920253915
N         0.14228094665032    4.80833965378626   -1.31917115080292
H         3.63019415289930    4.48911752100613    1.46877221017711
C         1.40156075187936    6.32984399560394   -0.48752388954380
H         2.35067880775316    5.24926278887573    3.24791142487580
H         0.79101606189000    4.75301352945200    3.90372114312846
H         0.83953442474470    5.94394414674593    2.60205281567641
C         0.26035413557944    5.73649483313392   -2.29749161335458
C         1.06720815140431    6.72791434198091   -1.79122365407720
C         2.24104856025514    7.11288759993542    0.45414290268916
C        -0.40324868836006    5.63415908854811   -3.62134595835721
H         1.37774736736303    7.62541755888008   -2.28514367299412
H         2.78764629629983    6.46203484879923    1.12689389628112
H         2.94209163881623    7.72574187372451   -0.10807070223719
H         1.61268533136993    7.77455187105984    1.05051627519995
H        -0.06000615003156    4.75714198188688   -4.17038846769739
H        -0.16408741598083    6.51752596275211   -4.20668342310047
H        -1.48656308208359    5.57611638836309   -3.51463715681427

