56
CSD_code = CPIMPT | q = 0 | S = 0 | Stoichiometry = C21H29Cl2N2PPt | MND = 4
Cl       -1.18814991633272    1.41051827156500    4.17575587327551
Cl        0.26631743922244   -1.59888417543744    4.17531117857007
C         2.86896090107328    0.00648584247907    4.17574690778208
C         1.03342554220002    3.13744093592961    1.43291001171967
C         3.15091392177928    3.34230435131454    4.17575463872931
C         3.49973673843293    4.82420037081467    4.17578612010521
C         4.98386781080431   -0.60281479529097    3.41086706174406
C         3.19968399234060    0.00809403328522    1.76061955330712
C         4.02814988845901    0.66298791713109    0.85334660489056
C         3.60092797607290    0.87645977480835   -0.44472937267382
C         2.35132428806342    0.44098623720898   -0.85147174444707
C         1.53222264467972   -0.22297405054506    0.04578713938397
C         1.95009134838894   -0.44554423207133    1.34622844599382
C         0.64405502187844    3.79738393084514    2.74846137033599
H         0.54910395489761    3.63312490880303    0.59429160993320
H         2.11017347313607    3.16453173536878    1.27412809566482
H         0.71614340149848    2.09495674729356    1.44768725637760
H         3.58273233319676    2.85707043045220    3.29517045711533
H         4.58168836288095    4.94836054138897    4.17578984934249
H         3.10719281196859    5.32154498959015    3.29259113359883
H         5.71412794086078    0.10012420565010    3.00176967349279
H         5.18097932011771   -1.59192794403077    2.98756027871320
H         5.00157072763547    1.02047619348027    1.15538219883681
H         4.24918162618822    1.38945401171368   -1.13984921518367
H         2.02336310917998    0.61204957883661   -1.86536954213176
H         0.56263610279600   -0.57964986647479   -0.26586287983347
H         1.32576270720912   -1.00262334941877    2.03021804586622
H         0.96077177297391    4.84313814714699    2.78845548578690
H        -0.44044485840550    3.75530238735757    2.87378445566122
N         3.62080816544377   -0.19186109567262    3.08884319605733
Pt        0.98382526902625    0.63093819986435    4.17572026010742
P         1.35124764406971    2.88448047634584    4.17573252279130
N         3.62080083587069   -0.19187299495621    5.26265771364421
C         4.98386147646157   -0.60282734589444    4.94063126902201
C         0.64406829243964    3.79738459360611    5.60301016540089
H         3.58271781187245    2.85703810332785    5.05632949465742
H         3.10719321370652    5.32150896857236    5.05900155366703
C         3.19968444857813    0.00808899190485    6.59088146041939
H         5.71412367868893    0.10009865655898    5.34974618558321
H         5.18096232276615   -1.59194971660362    5.36392019979663
C         1.03342970400202    3.13745212575638    6.91856986597601
H         0.96080610870669    4.84313169988866    5.56301402011394
H        -0.44043224703204    3.75533067063897    5.47769498929571
C         4.02816348112723    0.66299405201172    7.49813364280918
C         1.95009875798771   -0.44553524896231    7.00530382891127
H         0.54911502777809    3.63314297022907    7.75719016756536
H         2.11017683558409    3.16453631692771    7.07735070161353
H         0.71614445002695    2.09497055035426    6.90380263773799
C         3.60095871951555    0.87649713482428    8.79620896386919
H         5.00158044140041    1.02047258670671    7.19607508938734
C         1.53224193790521   -0.22293113429274    8.30574184937256
H         1.32577116311314   -1.00266024741301    6.32135888463941
C         2.35135625202184    0.44104542348489    9.20297547596926
H         4.24922460776354    1.38950561291107    9.49130629136593
H         0.56265964931690   -0.57960013409882    8.61740996873975
H         2.02340156865951    0.61214365478334   10.21686890953094

