42
CSD_code = CUDHUF | q = 0 | S = 0 | Stoichiometry = C19H17I2N3Pd | MND = 4
Pd        3.79951678618354   22.22042465978062    1.49728664453308
I         2.91607055271381   20.44514712884308   -0.19588596271469
I         4.65735228294654   24.23167162164708    2.94757472017584
N         7.66243076812793   21.26357891102726    0.24406365324935
N         6.20452825418025   22.85381662187862   -0.15304134675013
N         1.96985452284455   22.39362516858441    2.28841987917127
C         5.59480718485680   22.00717661989361    0.73037743433044
C         6.50850141695549   21.00039983988306    0.96463763046178
C         7.46958473881868   22.40645234031043   -0.44315458929785
C         8.28146229634434   23.12431139155947   -1.32122276505502
H         9.27439891201092   22.77374651371066   -1.55051126407409
C         7.77346162558467   24.27008667221937   -1.88106517855050
H         8.37356602592042   24.84776650614585   -2.56506163321944
C         6.46397230308530   24.69632020662861   -1.57855980635211
H         6.07144662024187   25.59135215780452   -2.03099357128098
C         5.69558058986251   23.97581320413425   -0.71791380824204
H         4.67389160688146   24.22886873294077   -0.43690402032874
C         8.90142136172242   20.53580868514585    0.28899103028284
H         8.92479267758890   19.92614272173430    1.19068549463136
H         9.73702025768126   21.23652222380535    0.31377494940630
H         9.00826296443403   19.88956795869468   -0.58609366168665
C         6.21498818592585   19.81647355563297    1.75750737602444
C         6.62728877919830   18.53923614078336    1.38035009162451
H         7.22614638824590   18.40194761784759    0.49289357079470
C         6.22054113224774   17.43261335536597    2.10243812469794
H         6.53858154538591   16.44836366274573    1.79241769282050
C         5.39495527130093   17.57857998631989    3.20347625056345
H         5.07354279360780   16.71077390532913    3.75930256041007
C         4.97304603745565   18.84256922054312    3.58453513020313
H         4.33222289222613   18.95793215969888    4.44720561494319
C         5.37229061464763   19.95584042219194    2.86910817700424
H         5.07474676663866   20.95534123494927    3.20901939521709
C         1.14858450220683   23.36201248719776    1.89643022643228
H         1.53719538353039   24.05853106536324    1.15291054863125
C        -0.13326188301578   23.48987329274906    2.40006882149703
H        -0.77178745040683   24.28775656530006    2.05539431919848
C        -0.57053748356449   22.57862339356765    3.34900433557463
H        -1.56389404790178   22.65145590722635    3.76498917868952
C         0.29162692100676   21.56970939887921    3.75134516546788
H        -0.00897198928433   20.83729009520794    4.48373992096421
C         1.55471189770662   21.51100218447529    3.19109845095106
H         2.26115999348014   20.72607446203280    3.46306121901718

