25
CSD_code = CUDQUN | q = 0 | S = 0 | Stoichiometry = C12H8HgI2N2 | MND = 4
Hg       -1.06594342434180    2.25727818190554    1.10918956954185
I         1.12140253007250    0.83789843495913    1.27791609534960
I        -2.85912071314347    3.73874016467456   -0.07090710025152
N        -2.48952759138188    0.98257594744970    2.73757280903284
N        -1.07136592170646    3.24176816503914    3.41801303699294
C        -3.17756405442109   -0.09002407050681    2.41413280080024
H        -3.17083997158501   -0.36773039214436    1.36761314896740
C        -3.89112347176970   -0.85531957604620    3.33925539687494
H        -4.43525448295197   -1.72550115974730    3.00890000739610
C        -3.87629956026280   -0.47351260488852    4.65703290903482
H        -4.41003981360670   -1.03528299396787    5.40997689907745
C        -3.15413523434255    0.67120454473572    5.03318560282845
C        -3.10287067161049    1.12305119685506    6.38210225878751
H        -3.63653820285373    0.55412856342724    7.12896133594640
C        -2.40663750142184    2.23370894391073    6.71632180262648
H        -2.36706949321874    2.58004790254310    7.73846892299891
C        -1.70533506071708    2.98118465285572    5.72850357038615
C        -0.98066986689651    4.14184331979454    6.04643490349838
H        -0.94840736374389    4.48313821041185    7.07103928748317
C        -0.32855701040473    4.82100400912597    5.04840787546892
H         0.23629341998425    5.71685752514148    5.24994440597929
C        -0.40481561466097    4.32696465942445    3.74429432081458
H         0.10008455243768    4.84168834938443    2.93653010631289
C        -1.72383237191709    2.56263333131827    4.37832112876662
C        -2.46573310554390    1.38025469435966    4.02228890528828

