41
CSD_code = CUJHAS | q = 0 | S = 0 | Stoichiometry = C16H18AuClN4O | MND = 2
Au        6.82260104354161    1.05695522151522   13.19248915700076
N         4.46870658401796    2.76895011335545   13.99300536607912
N         2.17645560680663    3.17625273436822    6.67215712733210
N         5.73265714300220    2.36324292109471   15.67796205060196
N         1.03083640517987    2.67250127534889    8.50434488032151
Cl        8.15579432754301   -0.19361782100895   11.89820154007569
O         3.01084415293383    3.22520321216287    7.74326346533162
C         1.01044146476043    2.84512004446984    7.15215219339280
C         2.27250698275618    2.91309783363799    8.81852731563860
C        -0.22742296812989    2.66718545769379    6.33960689978373
C        -0.71317710307337    1.22574183088696    6.53150216883490
H         0.02656720038426    0.52225697943214    6.15565546105672
H        -1.64377550783185    1.07336737212164    5.99028629238771
H        -0.88009642183926    1.02395153948550    7.58660772251977
C        -1.28394242117049    3.64458380088934    6.86770818759852
H        -2.21687790325606    3.50979392920121    6.32593116765690
H        -0.95121256612675    4.67202552009515    6.73590619049164
H        -1.46053056335473    3.46896582338594    7.92591342488281
C         0.06794417551787    2.94104208148641    4.86653330750934
H         0.83176453773424    2.26087873293210    4.50023657298260
H         0.43083348900888    3.95656091240188    4.73434928313813
H        -0.83591847025325    2.80885075105122    4.27663695493296
C         2.85430423525952    2.87693411824239   10.14199038905829
C         2.04246825006972    2.57167227666875   11.23353893828355
H         0.99893673533445    2.36075639356776   11.06404120336815
C         2.58073627685455    2.53592370048357   12.50261827419295
H         1.96055281027171    2.28227256634452   13.34934406640988
C         3.93373476418866    2.80434674825483   12.69026212631531
C         4.74496560489811    3.11732673513840   11.60442824818589
H         5.78857607017699    3.33845226314148   11.76087492934197
C         4.20792282230364    3.14884808310778   10.33336336712131
H         4.83016928469380    3.38611582930307    9.48499256642079
C         5.61966903448968    2.15893482336983   14.35573618840336
C         3.86689127926436    3.33969384773498   15.08666018524700
H         2.95041157428207    3.88751473700211   15.01704129331283
C         4.67024203248982    3.08994087738059   16.14563994442670
H         4.57207421246882    3.36516170508329   17.17525388806794
C         6.80873767764352    1.89402608709883   16.50382643309010
H         7.49514095006310    1.31548634418095   15.88703253249178
H         6.42248158164665    1.26170272252294   17.30449024823044
H         7.34308561549764    2.73717987536794   16.94488844847490

