58
CSD_code = CUJXAH | q = 0 | S = 0 | Stoichiometry = C26H26AsCl2OPPt | MND = 4
Pt        5.38291191418758    6.40629689697299    1.91831867165193
As        6.15112697311129    4.47693057456535    3.07326615649925
C         5.37330447081540    2.92320428001919    3.94586859150663
C         4.57009198626917    3.11664236545224    5.06530526914687
H         4.39230987763173    4.12888450087005    5.41544238314475
C         4.00449753896349    2.02679059322756    5.70401921973163
H         3.38470162716437    2.17436382236248    6.57616439789891
C         4.23013578332319    0.74660572191441    5.22347881012090
H         3.78909986378763   -0.10274078221044    5.72377758248579
C         5.01152290137621    0.55309460379269    4.09616927681126
H         5.17635979904373   -0.44547652966947    3.71772084281207
C         5.57694536360873    1.64013864834323    3.45227713325451
H         6.18144081614001    1.50013665924318    2.56116665680805
C         7.33152335285880    5.22081336568000    4.48071335642290
H         6.87238446075417    5.74527136267293    5.32098448499097
C         8.17984473370421    4.03597339947661    4.86492538856691
C         8.55209940929442    3.83872706104476    6.29501561538292
H         7.64855387163104    3.75713775096162    6.89959746202141
H         9.11776221456773    4.69716998807749    6.65845126866440
H         9.14920926599517    2.94261458996868    6.43779491333847
C         9.45110512663767    2.14323153243576    3.70629935986797
H         9.75215436822346    1.79924235482699    4.69150357168977
H        10.34727536639658    2.40084860724545    3.13881397617517
H         8.95630471560258    1.32165531210920    3.18810978179157
C         8.54010152093852    3.32229410628841    3.79237106615987
C         7.98827241970441    3.92754441525177    2.52722878636663
H         8.13500213994424    3.31972906409789    1.62956718069954
C         8.63884471552609    5.32048623622818    2.38952103734804
H         9.73091667762626    5.21129519028479    2.37420299900213
C         8.18661506352827    6.15548347617229    3.60186129054385
H         9.04186363858562    6.54587049413643    4.15934767834590
H         7.57144727968854    7.01265823474122    3.27730698701230
C         9.28136920345046    5.20845053391377   -0.42326551193227
C        10.64873753770593    5.45146109163100   -0.41142412313702
H        11.06214675438470    6.16811566400936    0.28447161298316
C        11.47082823388515    4.78552932454470   -1.30152568841557
H        12.53434212906183    4.97386794954595   -1.29744936832286
C        10.93034535281523    3.87982438592040   -2.20166740522834
H        11.57621151401237    3.36162708674215   -2.89478001612372
C         9.56555430443012    3.64336920872626   -2.21894815603194
H         9.14587261067049    2.94221315554409   -2.92489533665231
C         8.73947212982786    4.30908873274735   -1.33081678180637
H         7.67068027863520    4.14844708160010   -1.33310887055907
C         8.58035488414856    7.80274468066754    0.73418935737324
C         9.59744964650875    8.35196513108193    1.50519878141208
H        10.17292630012751    7.72923008314436    2.17533688815907
C         9.85991478250737    9.70686215052041    1.42143864282681
H        10.64441544935439   10.14002804721949    2.02465887633406
C         9.11241993532333   10.50899417874616    0.57301530899674
H         9.31603567007546   11.56817143997186    0.52103762284543
C         8.10569890969333    9.95846513303818   -0.20257420475762
H         7.51871414547963   10.58398788521865   -0.85681832372321
C         7.84153583656825    8.60300326059006   -0.12871224166553
H         7.04925051569783    8.15986772707372   -0.71384133717500
Cl        4.08013756954651    6.65582853425426    3.71889589092341
Cl        4.85364879291101    8.40999795901067    1.04457863393075
O         6.76462975928296    5.77457718690712    0.30801675268332
P         8.16697849719942    6.04016449097542    0.74159780080247

