29
CSD_code = CUKLEA | q = 0 | S = 0 | Stoichiometry = C13H11ClN2OPt | MND = 4
Pt        3.12944187410566    3.76041076691799    3.63533456408363
Cl        3.25511870447741    2.83330977520077    1.63169028256412
O         2.45391142778332    2.10303886405796    4.62042228452755
N         3.75931051109088    5.58004406798419    3.11997678246399
N         3.01896455893881    4.55742171954355    5.37235370449876
C         3.37263393741943    5.81722950349929    5.44112608692636
H         3.35975985528427    6.39073215461125    6.35877019774198
C         3.78691861243471    6.40829513993270    4.20645597236932
C         4.20015191940549    7.73858799306638    4.06997484026778
H         4.21507597917780    8.37606573634221    4.93972716057506
C         4.57973462815278    8.21003142360074    2.83009048452337
H         4.90042300841317    9.23341053300495    2.70966372085663
C         4.54302066795493    7.34813499453301    1.73899360990897
H         4.83204067120482    7.68123311999876    0.75626579307765
C         4.12620669064016    6.04157867616117    1.93083675431031
H         4.08006341418221    5.33167396602956    1.11471529831837
C         2.58142744596948    3.71726827915019    6.35518367565559
C         2.29498004662387    2.40025791944974    5.86866296058150
C         1.83505685044106    1.44988371330961    6.80677840793610
H         1.61465257376165    0.45389782737728    6.45638246719854
C         1.67752108692592    1.79686784310543    8.12170018826358
H         1.32473241797941    1.05735958555546    8.82651912488859
C         1.95904407994028    3.09200134542520    8.59726449458802
C         2.40814192722258    4.03982434511506    7.71020928053850
H         2.63032125042939    5.04011331528669    8.05295813659120
C         1.76846282353123    3.40213470449609   10.05090551877215
H         1.96321139569799    4.45180636930129   10.25545213748563
H         2.44419858744533    2.79963877122724   10.65756745843630
H         0.74987305336662    3.16964754671490   10.35881861205093

