63
CSD_code = CUKMOL | q = 0 | S = 0 | Stoichiometry = C34H18Cl2FeN2O6 | MND = 6
Fe        7.60542659364108    3.42580336093887   15.56489469338949
Cl        8.80111446826071    1.83384910991775   16.35383885939871
Cl        6.26176647468357    2.04214209773507   14.63062451064460
O         8.76578268844379    4.65082331777322   16.44717749908772
O         5.89026156339521    4.60070936930060   23.45509085113207
O         7.85357345333851    5.61668392651369   22.84572098840849
O         6.57501824829710    4.83598954383428   14.80866106927211
O         9.38137959155161    5.07993607767632    7.77610017086953
O         7.53267580860482    6.23003755851475    8.49547108855895
N         6.65441580604618    3.47695348501156   17.25466198540025
N         8.56218641798760    3.54136205820792   13.87921736208262
C         8.54999013111551    4.75370802985717   17.69025198985657
C         9.37171966398968    5.50613018294996   18.60615927450022
C        10.54271621052526    6.12028952501288   18.14736655219302
H        10.78694371310016    6.02106350839511   17.10079452900187
C        11.35338352901088    6.81802040814211   19.01154276709006
H        12.25563819202891    7.28974282296117   18.65246961873740
C        11.00534174668075    6.90968772987340   20.35576660904344
H        11.63963049746648    7.45566881901589   21.03836799531417
C         9.85583316937528    6.31052541536266   20.82591803108586
H         9.60339195336059    6.39105696090915   21.86982523499900
C         9.00983641729987    5.59707533730889   19.97076127736288
C         7.79193077850440    4.96997181174575   20.44738257303639
C         6.96843284709396    4.24319411492078   19.53797217402578
C         7.36999136179671    4.11886623192092   18.19627559469762
C         5.49284345641511    2.92093218729763   17.61594557682269
H         4.96101717014034    2.41068898209430   16.82668150714020
C         5.02075587136058    2.96352967056912   18.90323888464388
H         4.08938042579732    2.47935817643747   19.14995526256391
C         5.74659599930770    3.62869105078387   19.91625978767358
C         5.30803950850660    3.70686468992916   21.25399258487034
H         4.38638294969066    3.25006935986176   21.57056211494920
C         6.10661606490632    4.38941617495472   22.12477153148096
C         7.31493327772235    5.01160605020017   21.74545249734447
C         6.97830753041035    5.35974902920729   23.92151961444713
H         7.51336497204298    4.80177248367736   24.70633022815918
H         6.61614016254075    6.31373285940543   24.33632492272820
C         6.79631420199488    5.02582629240788   13.57668244395682
C         6.04791643956331    5.92962362302756   12.73808869312303
C         4.94486154038340    6.61366755241785   13.26203974393047
H         4.69816679945824    6.45192706846803   14.30022634381179
C         4.20082931018209    7.45583162969625   12.46956683354197
H         3.35044391432617    7.98034698550211   12.87860812209210
C         4.54890352642827    7.62590160540754   11.13301331331212
H         3.96664596551280    8.28519803192126   10.50645341660780
C         5.63237996728625    6.96024518036854   10.59934797109322
H         5.88579196425958    7.10306163210999    9.56228987478171
C         6.40909937730205    6.09875754411074   11.38070649941126
C         7.55604892755005    5.39729883297981   10.83646392458444
C         8.31248257855707    4.52417947808309   11.67238439237695
C         7.90797044171952    4.32694222431147   13.00439047185776
C         9.66421860696965    2.91112457286579   13.45867874739225
H        10.14825284249916    2.28786198313410   14.19584863070740
C        10.13199239011278    3.01672567677708   12.17332432813076
H        11.01141569777686    2.46864808522098   11.87503388958991
C         9.46648426836972    3.82827515501223   11.22786833541074
C         9.89861793135924    3.96958657863693    9.89317851515671
H        10.76882384214603    3.45302365422315    9.52682126854165
C         9.16033853371253    4.78975650443519    9.09061229980416
C         8.02192408742315    5.49376021241073    9.53730218946191
C         8.36175672838255    5.96618750465700    7.38540872577792
H         7.76326759221599    5.51372733972116    6.57844653689540
H         8.80469381005975    6.90791353392061    7.02516667656487

