55
CSD_code = CUSNIN | q = 0 | S = 0 | Stoichiometry = C32H20Cl2Zr | MND = 12
Zr        7.87398656672331    2.54185479330289    3.22280289453069
Cl        8.16488555834452    0.61997816037735    1.95185685365705
Cl        7.15497345268964    1.35449694898986    5.08518252580981
C         9.40581843212263    4.36485018737658    3.36306227255555
C         9.40762365841088    3.81512431882095    4.68705752339343
C         8.89876545818871    4.31029880736376    5.90572037848363
C         9.04991004175621    3.55015259408733    7.04062781665835
C         9.69537151299102    2.30461069030417    7.01142793629430
C        10.19387546510325    1.78418527638656    5.83846638753867
C        10.04942605223352    2.51875856149959    4.65553200139781
C        10.45656400023686    2.27022667663313    3.29593300564539
C        11.14134274696518    1.21083893089894    2.68876767349718
C        11.39107593409882    1.26593538298436    1.33608230331607
C        10.97634262582634    2.36027326084420    0.56209354966732
C        10.31886667311163    3.43033582157019    1.12066880415898
C        10.05452481315611    3.41446669116268    2.50653084350831
C         8.95329776989018    5.72161009419260    2.97133707027912
C         9.80271645194000    6.85114508201287    3.07260054483045
C        11.12173473328115    6.75448150979748    3.56353402849730
C        11.91227559305420    7.86547626340433    3.65008930385728
C        11.42301438242076    9.11932668929517    3.25035092557826
C        10.15007406377862    9.24286139829218    2.76905892088930
C         9.30502911918608    8.11780821891376    2.66606838901793
C         7.98660079395391    8.21681069598824    2.17297206429842
C         7.18201369765189    7.11528209410274    2.08695018490958
C         7.66638347542468    5.85800076805327    2.49028956822883
C         6.83551097929081    4.63199631071402    2.44158499556154
C         6.05740489535025    4.13978281370543    3.52098364630330
C         5.39111949988363    2.95675741294121    3.06314807695448
C         4.45167529214296    2.09918630199889    3.66714756984788
C         3.99123257529428    1.02004282608121    2.95550516161175
C         4.42802405546459    0.76378764319794    1.64360441666505
C         5.33551771653611    1.58047908497499    1.01731273191020
C         5.84148270685734    2.69216745169889    1.71765524987190
C         6.78025355543966    3.71395034143601    1.36295553055890
H         8.42939861333475    5.28663919101924    5.94001505199357
H         8.66894289435181    3.91633679315248    7.98233714910779
H         9.79488677911463    1.74668228851586    7.92949868119752
H        10.68801675651644    0.82227925823172    5.82502024889051
H        11.46360874160009    0.36258880240623    3.27699251516906
H        11.91243199534236    0.45346821386836    0.85446721170458
H        11.18991764027052    2.35934626617242   -0.49650584311879
H        10.03924790337703    4.29209425996761    0.52553156565286
H        11.49149349024660    5.78667144409279    3.86938935593619
H        12.92102091597780    7.78658820605877    4.02738522549967
H        12.06297720144468    9.98600460447049    3.32630146469228
H         9.76911865877519   10.20556470790900    2.45959656342795
H         7.62100649525668    9.18540721477473    1.86445099639675
H         6.17166051067971    7.19095386748802    1.71334947557467
H         5.84176570230444    4.67370387856657    4.44080941621243
H         4.10204701930533    2.29842263841711    4.67131585810555
H         3.27196265446448    0.35127396359783    3.40384992311094
H         4.03185334467162   -0.09452275116382    1.12217415222089
H         5.66032788890262    1.38341711989923    0.00448215185344
H         7.20070044526208    3.87093992915297    0.37547768658875

