54
CSD_code = CUXKIR | q = 0 | S = 0 | Stoichiometry = C17H29Cl3N2O2Pt | MND = 6
Pt       10.46658028984684   -7.22406210146431   18.10201098515093
Cl        9.89853449600524   -8.78605699679188   16.44730803174857
Cl       10.93502070342196   -5.63435310394284   19.79209310435202
Cl       12.18484460529651   -6.40330585949384   16.85752021848571
O         7.75112241643713   -3.98774230911939   18.57069945163135
O         7.33826732554667   -8.30932643231914   20.60553222449854
N         8.83073704595222   -5.64631530213698   17.56061125308322
N         8.97985400078679   -7.98084907313446   19.18480486961450
C         9.15835706417300   -4.47234394750811   16.75560923525784
H        10.24894073044470   -4.37760517291558   16.72067417130503
C         8.51939089347733   -3.32412166241817   17.56943008281513
H         9.26735292875024   -2.70223043740737   18.06894293452025
H         7.84842290501581   -2.68985739304310   16.99079358090501
C         8.06394167697416   -5.28500400013795   18.51066916019442
C         7.37363363183407   -6.12266156986324   19.56044778367527
C         7.94818608930206   -7.49377894641867   19.74305531929027
C         8.09412693475236   -9.52784148489681   20.66802785999799
H         7.43364579345260  -10.35160428945955   20.39032599939097
H         8.42978054074252   -9.66360840941734   21.69795123517503
C         9.24500672231029   -9.32521851338947   19.66023545854119
H         9.15556861927026  -10.00568154166942   18.80397622761832
C         8.64706991620546   -4.60631043892445   15.29997361724433
C         7.13376217461099   -4.83310521080888   15.27026411624959
H         6.88104762893918   -5.75044151030655   15.79792438661424
H         6.79902085450564   -4.93126557741010   14.24060380060250
H         6.58778962408208   -4.00866396110802   15.72425114402857
C         9.01295253736799   -3.33296898091951   14.53261583052667
H         8.51464465653139   -2.45383263824108   14.93453860862331
H         8.72052068290225   -3.43867852682104   13.49080945758421
H        10.08671269038129   -3.16619609640789   14.56981270531022
C         9.34447602699936   -5.79401483797397   14.63712943149474
H        10.42507890726938   -5.68962176851168   14.69602859563291
H         9.06057768551992   -5.85996792835360   13.58944508734715
H         9.06496867057309   -6.72290527609923   15.12460472331716
C         5.89873140518678   -6.26009260506584   19.14310792563130
H         5.45674138958205   -5.27267534435464   19.03930691364739
H         5.35474580966424   -6.81811308454813   19.90055225321112
H         5.82044175347999   -6.78432390210463   18.19270994017793
C         7.48949084551607   -5.40423908615196   20.91669856506713
H         8.53922736005193   -5.27164858198587   21.17274455168874
H         6.99985438338541   -5.99302026139367   21.68779032805455
H         7.01876827494140   -4.42752777094898   20.85400245980353
C        10.71973790260033   -9.36877266181138   20.14390594080587
C        11.56536917097464   -8.71611590739537   19.03633081854399
H        11.83185116639217   -9.44393943308270   18.26737645813357
H        12.47258199987989   -8.26842561472779   19.44558040619552
C        10.90764816574842   -8.62351047548972   21.46738874828552
H        10.57855546056828   -7.59061692890586   21.38373886163804
H        11.96249061652981   -8.61571564265247   21.72880785528221
H        10.37072566983008   -9.10782009327618   22.27989737451988
C        11.15013584367580  -10.83018686703846   20.31265838412825
H        10.55842087398717  -11.31301342028401   21.08755158296854
H        12.19714096365237  -10.87633170833443   20.59954304235884
H        11.02270347467251  -11.38136931161434   19.38468689803108

