47
CSD_code = CUXKOX | q = 0 | S = 0 | Stoichiometry = C20H20Cl2N2O2Pd | MND = 4
Pd        4.58216220366385    9.74864100531544   12.73128123217169
Cl        4.88348321518190    9.93305635472915   10.55828254270938
Cl        6.38479002011037   10.96217016231444   13.08347503370129
O         1.45662385401557    7.33576000273594   13.73973840516701
O         2.58760640881761    8.77002471031508   16.14875359461857
N         2.97505154899028    8.52281218977406   12.59535493814766
N         4.08561808491682    9.57742071658034   14.68981821206506
C         3.41638502572307    6.73131512612571   11.01126383110735
H         4.29919629734869    7.33155340594395   10.75862956474305
H         3.69070697968358    6.00742201371234   11.78286702355590
C         2.35987702337182    7.69854573200143   11.57869899753282
H         1.98592497837520    8.33214904318614   10.76885463294859
C         1.22607092405111    6.99626862096028   12.36441597421610
H         0.23174795461040    7.35572434129452   12.08619648605945
H         1.25557908705602    5.90962800121790   12.26706114557095
C         2.45989972308248    8.21790310428469   13.74117215708496
C         3.03751418198685    8.84849068115853   14.89332605424359
C         3.48931645465446    9.55253108384357   16.94528784182800
H         4.01071114502993    8.87934709526493   17.63109043044391
H         2.90547307525027   10.27171428631262   17.52235687303486
C         4.44115543148179   10.23050568625767   15.93019638661533
H         5.49707712057943   10.04861613430060   16.15172351098877
C         4.21509832015422   11.74730793062739   15.78084550165968
H         4.69504082626801   12.05299688716043   14.84285345123543
H         3.14253400870633   11.94494087030681   15.70944932406145
C         2.89730811656205    6.04010503259063    9.78412932250309
C         2.43609562601498    4.73210303883682    9.83297080019211
H         2.48192271607794    4.17789531499602   10.76053102262084
C         1.93446810691988    4.12173885631891    8.69578287497646
H         1.58315370100817    3.10151261143703    8.74447859130076
C         1.88607243162748    4.81654475855643    7.50028569989072
H         1.49522285654459    4.34025021019868    6.61353718565352
C         2.34831020067880    6.12147837503598    7.44305523303645
H         2.32070821261182    6.66362719566916    6.50969951024987
C         2.85089066457953    6.73026047737137    8.57810630746247
H         3.22523741494495    7.74266581351013    8.53481806246749
C         4.82489997809368   12.48897378511814   16.93460482194617
C         4.04620678267222   12.96453722518810   17.98025944958186
H         2.97243038204254   12.83836700215290   17.95442199237010
C         4.63248280664129   13.61833444248648   19.05088768614254
H         4.01604571382556   13.98866739238865   19.85684863496628
C         6.00386993667802   13.79838258697529   19.08640702135089
H         6.46074807350543   14.30838821069763   19.92138147748624
C         6.78719106333908   13.33019996513169   18.04373032627885
H         7.85660298971430   13.47778074691766   18.06331005593767
C         6.20164674682630   12.67901927160219   16.97387237991236
H         6.80674158597342   12.32442250109437   16.15218839816569

