43
CSD_code = CUXLIS | q = 0 | S = 0 | Stoichiometry = C12H24Cl3IrS3 | MND = 6
Ir        0.95038732249635    6.67033356928193    2.88372811010151
Cl       -0.22948109595455    8.62498123743261    2.38110140027832
Cl        2.16441692702255    4.68476116210831    3.26632101093821
Cl        0.52879416151845    6.93518504177885    5.14295471983186
S        -1.14212836269275    5.44262458824942    2.64439008348938
S         1.31349745449010    6.40783320707341    0.45205832720747
S         2.96631683065464    8.00564028869653    3.15541159308817
C        -0.76959568058358    3.97347598801427    1.61265904364044
H        -1.24162503785840    4.12180438529175    0.64424355555109
H         0.31084105396812    3.90829725699867    1.49529053446298
C        -1.30540057371026    2.78218799000062    2.38740132902212
H        -2.39130089983800    2.72154577753243    2.28771139353264
H        -0.86706946924119    1.85674821075072    2.01483032184341
C        -0.92583609249773    3.04547837232254    3.83924295161075
H         0.15962514407913    3.01473837595818    3.94310959652485
H        -1.36642790647169    2.31741491759756    4.51971821421535
C        -1.42698181096495    4.44345540733009    4.15283877066280
H        -0.91386849615874    4.91237570412215    4.98932603496660
H        -2.50364414854389    4.46523575308337    4.32428069747237
C         2.99147470776955    5.72899177394998    0.16771298177308
H         3.29919806308490    5.18564604792498    1.05859103027029
H         2.90325894534599    5.03660782139165   -0.66981868761956
C         3.88002930806312    6.91268736074727   -0.17292219910335
H         4.19727646979202    7.41407656184916    0.74263271833301
H         4.76518628338031    6.58247132107295   -0.71652591435230
C         3.02323199541796    7.85935532167215   -1.00704574858819
H         2.81731442765658    7.40878791515919   -1.98024113092104
H         3.51621132208314    8.81799200691478   -1.16626137124006
C         1.72752297871462    8.04805384218557   -0.23724096123072
H         0.89154828779364    8.35815415391934   -0.85992186536670
H         1.83030973960261    8.74643588233655    0.59132387678623
C         3.93136398467776    7.32655908943372    4.55633694512129
H         3.64379670276819    6.28931763147627    4.70846903604233
H         4.97786178846764    7.37776225486359    4.25261460171378
C         3.63568419368261    8.21697137767807    5.75155157710708
H         2.69725472549937    7.90348770303926    6.21060286044704
H         4.43515272786629    8.14385492363403    6.48859641035656
C         3.48721140569962    9.63211590873830    5.20509696848316
H         4.45070119377585   10.00078733601509    4.84405245079002
H         3.11271220255695   10.31909763820673    5.96313545226201
C         2.49920905473056    9.52600981343069    4.05761593248578
H         2.54580686401998   10.35374293577511    3.35344502983894
H         1.47636330783038    9.40361614495449    4.40798231818401

