55
CSD_code = CUXMIT | q = 0 | S = 0 | Stoichiometry = C20H22Cl2N2O6PdS2 | MND = 4
Pd        2.14581175547213    3.25386212738576    5.52406599320900
Cl        3.99478983296797    4.58305255527987    5.14670635553897
S         1.04341459661941    5.98254615330145    6.28785871428852
O         3.14750827044596    5.91397448833566    7.94949069688196
O         5.91340702860921   -0.60210213076201    8.46782868738030
O         7.11912502544249    0.57450625386372    9.80900368957657
N         6.15577156901640    0.41237041323268    9.09527686973975
C         1.52035770623431    4.47343510262892    7.10158103555436
H         0.69465077645705    4.00472109781225    7.63866372634615
C         2.74255422857463    4.76246363685040    7.83733905423564
C         3.54218557904334    3.59562922864232    8.32900845986555
C         4.83507116011533    3.84959620863367    8.78503268291443
H         5.16120040810605    4.87663732074009    8.84757488903595
C         5.68888931094092    2.80844231758674    9.09099709517302
H         6.70446693009435    2.98380617006502    9.41145754071733
C         5.23746426903839    1.50509559217321    8.92973266007209
C         3.92778976246095    1.23257541220005    8.54235181839223
H         3.59958226217752    0.20680210385481    8.46579288222591
C         3.07426153066017    2.27639416378983    8.24394034691606
H         2.05045358011967    2.05108494596382    7.95722412227324
C        -0.54663756039537    5.42458285306631    5.61844433954357
H        -1.25764331978130    5.28150022229938    6.42558201088224
H        -0.36923633637809    4.47169550946513    5.11368352636907
H        -0.91027535755973    6.17156230999922    4.91920116325655
C         0.38638183015897    7.06836039665915    7.60060893987941
H        -0.16555628548390    7.87356207333698    7.12860855481954
H         1.24282218782780    7.46181859081809    8.13765112126536
H        -0.25121677278082    6.49725504659646    8.26668842695490
Cl        0.29692531216673    1.92562326538275    5.90106489030359
S         3.24852928112241    0.52728937797607    4.76362042487502
O         1.14620117051172    0.59282249476280    3.09792084908921
O        -1.62844543173193    7.10398648588232    2.59555589234862
O        -2.83159326557163    5.93187741291494    1.24812481394788
N        -1.86888553854992    6.09215988899378    1.96307442680792
C         2.77199329861812    2.03469396256601    3.94677252945656
H         3.59786989519619    2.50270844112003    3.40928167718202
C         1.55024166683480    1.74454138385105    3.21042161241311
C         0.74982991957002    2.91089379186747    2.71893413627727
C        -0.54298003585251    2.65617885437880    2.26317650247590
H        -0.86790928616641    1.62887493214974    2.19900566081252
C        -1.39836565390331    3.69687020742251    1.95992317360952
H        -2.41395451136738    3.52088498713870    1.63993046151439
C        -0.94858708238991    5.00041424640935    2.12381488113817
C         0.36125930175119    5.27383007576752    2.50999705533996
H         0.68831411248302    6.29982283508312    2.58815984477650
C         1.21640096055057    4.23049939913930    2.80552623117529
H         2.24036490788165    4.45649122767326    3.09117664578140
C         4.83816051640201    1.08657572605793    5.43286160713082
H         5.54906283910044    1.23007157049791    4.62567647988034
H         4.66018417882308    2.03942205402263    5.93754329667951
H         5.20223536481419    0.33991740303150    6.13215970715741
C         3.90666469112684   -0.56155162203122    3.45388675561051
H         4.45725241762617   -1.36626159884043    3.92828692356938
H         3.05065275705813   -0.95541663589043    2.91646482586999
H         4.54568424569159    0.00764966885059    2.78754329147331

