50
CSD_code = CUZFAG | q = 0 | S = 0 | Stoichiometry = C24H16Cl3N6Re | MND = 6
Re        3.72992384906274    6.18917593688601    1.15292083058007
N         4.98345661016050    7.30271760088326   -0.07366238057439
N         3.18054346985038    5.58798218932107   -0.63201227455984
N         2.24143232447428    4.81544637024991    1.60840699794866
N         2.42180707621126    4.76030094154766   -3.09323689258031
N         3.46567509574621    7.97299289372105   -4.05759485374696
N         1.62015836414344    1.78557662063963   -1.41158021388567
Cl        2.09224665004183    7.87658515381465    1.05832396397901
Cl        4.36331852209768    6.87960497122231    3.21036119963443
Cl        5.35477748925103    4.48528565646119    1.19334412067852
C         5.98955011562254    8.08238034476033    0.32517571968298
H         6.06559096039220    8.25126905281771    1.39138837737102
C         6.89495235458398    8.64274756684928   -0.55004631398433
H         7.68606426186025    9.27133038916759   -0.17544900365959
C         6.77734999952148    8.35998616255283   -1.90736671539615
H         7.49118798443718    8.75089359908080   -2.61547580297292
C         5.73667578344085    7.56196778818347   -2.33231563527851
H         5.62871862587837    7.30757079513022   -3.37181176038959
C         4.82063044718254    7.06583300758452   -1.40386190218815
C         3.71174311279880    6.18627469194291   -1.72570148713779
C         3.15762547197294    5.85822205414606   -2.97866137848192
C         2.05001928744006    4.05727259730769   -2.03167585206145
C         2.27901437005198    4.58257634849756   -0.74460144969542
C         1.66244617686550    4.23443359776720    0.52214947657188
C         0.50828379302877    3.46191915578224    0.65871608626873
H         0.02826484809672    3.06615344488984   -0.21869672326501
C        -0.01213555523639    3.22505816469279    1.91299118185589
H        -0.90231969801685    2.62740460388206    2.03187640511292
C         0.62543562312763    3.77835170985870    3.01919178022550
H         0.25940093645738    3.61008713280646    4.01869122051408
C         1.73240882076885    4.57427116497252    2.81769713851775
H         2.23759275649905    5.04877999470572    3.64880577106915
C         3.26901907253581    6.66404512208837   -4.19878213704209
C         3.09287765469254    6.06506925869696   -5.44782291299643
H         2.93731861146511    5.00033113035396   -5.50665821348328
C         3.13103375490208    6.86454057763311   -6.57604905997302
H         3.00435361375467    6.43278009783915   -7.55833238762089
C         3.33142450657291    8.22831363431302   -6.42430170400088
H         3.36328868956386    8.88754770717709   -7.27735269963868
C         3.49140544251603    8.72638807267824   -5.13789282389592
H         3.64837813288131    9.78210708408997   -4.95989204909045
C         1.47569427652834    2.74065693346442   -2.32740627435928
C         0.87620559754432    2.50413719818713   -3.56617160460656
H         0.78208413284515    3.31330430780473   -4.27164603346848
C         0.41452587180836    1.23031100154504   -3.84502833878372
H        -0.05898267333508    1.01397084920025   -4.79179519861828
C         0.57281560525499    0.23652665584179   -2.89086064649372
H         0.23245221336158   -0.77103416128236   -3.07053501978387
C         1.18451802585044    0.57405143223903   -1.69065614020885
H         1.33524754344612   -0.16089860400030   -0.91090638610527

