58
CSD_code = DABDAL | q = 0 | S = 0 | Stoichiometry = C27H26ClOP2Rh | MND = 4
Rh        6.18052923663795    6.18735230343632   10.25439858192484
Cl        4.61642209356018    4.60872998043634   10.49677950053170
C         7.43585946530819    7.49934575594187   10.06270598557370
O         8.23802351303518    8.32112531487544    9.95748041323826
P         7.31273747352944    5.16815180159842   11.94213510017842
C         6.39446109240954    4.35486096839150   13.30311995167861
P         4.96530958565475    6.71667732278437    8.41470742030052
C         3.13533786705723    6.76505424298855    8.44229669399189
C         8.23662559863393    3.76068806185686   11.23862957770148
C         8.04556442430057    3.45202224660170    9.89697988225840
C         8.71625875697594    2.38743221405145    9.32264020167125
C         9.58712063313288    1.62942115472776   10.08749329871442
C         9.78884954074865    1.93902387288319   11.42396108361890
C         9.11764399352936    3.00094753577116   12.00075606168116
C         8.64936640446275    6.05120042393555   12.80855743990117
C         9.82623486677758    6.29809594774132   12.10632606785156
C        10.85114880521536    7.01680448168300   12.68931505219889
C        10.70658646094439    7.50873083758953   13.97729248537519
C         9.53240287384511    7.28275675456274   14.67453125306209
C         8.50447121827754    6.56078720893975   14.09281682663627
C         5.27891795950692    8.25273527326994    7.47936508098829
C         5.28350319379657    8.30694927968143    6.09170701582837
C         5.48459306691133    9.51564697103142    5.44906822297337
C         5.67476090867767   10.67339257115416    6.18550928035060
C         5.66305713097389   10.62529563240623    7.57031586938764
C         5.46729992359232    9.41771436255696    8.21362190654407
C         5.38069641927228    5.42913972916372    7.19780198957182
C         4.47823570130272    4.51777184179547    6.66708617817001
C         4.92445669497701    3.52262661409294    5.81276366692348
C         6.26639212690588    3.42776055604397    5.48773880107100
C         7.17462935076892    4.32870580543896    6.02377817721328
C         6.73473894143309    5.31937399567888    6.87927325708087
H         5.77026808974500    5.08991323865804   13.81087220341821
H         7.08000476882681    3.88673926134191   14.00909190489636
H         5.74333696596687    3.60446835096756   12.85619861166327
H         7.35584136105197    4.05771545450684    9.30794161198996
H         8.55821299570722    2.15077567481147    8.28046218189482
H        10.11313671424355    0.79697547022378    9.64334608882939
H        10.47320015498032    1.34929433287151   12.01669489804570
H         9.28505605083703    3.25009619946490   13.03991498702025
H         9.92794150881340    5.91656914518723   11.09819487308652
H        11.76282278171355    7.19929072830279   12.13949298039954
H        11.50640866917702    8.07310090062900   14.43361379875022
H         9.41430023480701    7.67323051621326   15.67511532050744
H         7.58750463683237    6.39856359941134   14.64058351010772
H         2.75873412507533    5.85748491186425    8.91131447055516
H         2.74818213457082    6.87421150646804    7.42849716324204
H         2.83086214662086    7.62463862757271    9.04080622155426
H         5.13580345438356    7.40266527482883    5.51700048426578
H         5.49289061220734    9.55481237832068    4.36933635731716
H         5.83424390789027   11.61412014246255    5.67935017322326
H         5.81218736870230   11.52755447268428    8.14512859707498
H         5.46316837820027    9.36088599116175    9.29621533654491
H         3.43182941029320    4.57144704906560    6.92618754689854
H         4.21914364701927    2.81414995151029    5.40282961671753
H         6.60743935903607    2.64770428436434    4.82276540013219
H         8.22416236725600    4.25190685259384    5.77892093598931
H         7.43398283397418    6.02696462134430    7.31427240176268

