37
CSD_code = DACHAS | q = 0 | S = 0 | Stoichiometry = C17H11BrN3O4Re | MND = 6
Re        3.15170910789211    5.95640571612940    6.84433067537294
Br        5.53372750923108    6.47336237083943    7.66717882578314
O         0.36735214838261    5.44903016096327    5.61123268291241
O         2.08188071548063    7.37240551197411    9.38076776297899
O         3.33541123162694    3.23580490511793    8.30907449416874
O         6.90183605987087    8.56541221971856    0.13800985854151
N         3.43368849737373    7.76733415812655    5.71402063197543
N         4.15705387108456    5.28815476860233    5.06468455591520
N         5.96619732919980    9.55437494024935    1.97184988143429
H         5.78993552517143   10.46206349927042    2.37600025111154
C         1.39913721423308    5.63057806461049    6.07832193079977
C         2.43329695978272    6.81649679135919    8.44338457545942
C         3.20939459729464    4.24090908184948    7.77616217552397
C         3.06378960141560    8.98300171701969    6.07407464618842
H         2.43753472369916    9.06525440229188    6.95272703822805
C         3.44973657532838   10.12224669887634    5.37598044596951
H         3.11913463467493   11.09040143308725    5.71556337412978
C         4.25243622933782    9.99816400896852    4.26507192120407
H         4.54150105157453   10.89161677333436    3.73154444836051
C         4.66944583743772    8.72347556192718    3.85047779281145
C         5.51279750495267    8.46559084042061    2.70796767113884
C         5.84965782795474    7.18299114107853    2.37971581779275
H         6.47450007088170    6.99532815369043    1.52259502986414
C         5.41021096757895    6.07619213732536    3.14463382736855
C         5.76810606835177    4.75144317449308    2.84371982689651
H         6.39638334051206    4.55026821017703    1.98983140874764
C         5.31110255757156    3.74229637691223    3.65641348106973
H         5.56551748819637    2.71208532776383    3.46590460265850
C         4.50956608340889    4.05298161864050    4.75539544016507
H         4.14825761446719    3.26693692684584    5.40583179025078
C         4.59580683707997    6.29210571725531    4.27385132633704
C         4.21923393605141    7.62659030529672    4.62177452936155
C         6.62917091925808    9.55719595420013    0.76681053666253
C         6.96855493940831   10.95907433215238    0.31467709142272
H         7.48079650059021   10.90914824277959   -0.64147899948282
H         7.61857229907616   11.44140299498169    1.04217299055245
H         6.06286562457937   11.55207576170586    0.20282566028272

