52
CSD_code = DAFDAS | q = 0 | S = 0 | Stoichiometry = C22H24Cl2NOPPt | MND = 4
Pt        4.52905853533149    5.39596117181820   11.02366178427839
Cl        5.76727644432148    3.51397425995776   10.85262523915463
Cl        2.67327362986713    4.13488196729811   11.49175097285913
P         6.27058734191278    6.77913331363848   10.70453023150362
C         7.39607166102199    6.69737348135546    9.28480840794366
C         6.81105369053385    6.66155059227698    8.02114739007737
C         7.60168166441481    6.56623124560538    6.89328499286191
C         8.98080671806003    6.49403910031355    7.02115918554274
C         9.56431797678908    6.51326701080234    8.27671078583058
C         8.77706432051171    6.61191252519688    9.41109736274951
C         7.37353876212193    6.98619887590849   12.13476425205777
C         7.86985415721256    8.20994113556735   12.56866965040257
C         8.71626760830402    8.25744796239575   13.66290507628336
C         9.06654661980071    7.09378513520315   14.32865844786962
C         8.56454894981566    5.87368301854773   13.90371599812446
C         7.71795688140335    5.81720468640583   12.81138218142201
N         3.33905062090093    7.24075136996842   11.08748914197800
O         4.47129578369888    8.40073426777200   13.58639639180510
C         2.33260486712032    7.05376813535218   10.03021068039838
C         2.68899664478543    7.29569545775084   12.40396865772623
C         3.70037487629493    7.21929209218696   13.54027011166917
C         5.28804840206916    8.46801561357678   14.72656906974452
H         5.97793994552142    7.61785162596753   14.77420973146010
H         4.68397837046364    8.48400805384481   15.64235333706749
H         5.85619816120794    9.39221184615404   14.64887507320210
C         4.08712854811010    8.45047218226377   10.79941924435032
C         3.44972193176878    9.68446655811180   10.74107788259584
C         4.14310126593713   10.81925644019402   10.36218056782807
C         5.47895504503927   10.73818836916057   10.00437309095256
C         6.12772697142610    9.52073888030744   10.07034322329934
C         5.44579932923416    8.38358968045332   10.49281404033078
H         5.73183551385332    6.69875940764026    7.93882935462809
H         7.14714569504866    6.53911361588565    5.91406687530536
H         9.59981793943038    6.41345251736830    6.14006478059038
H        10.63784743042310    6.44627052219681    8.37479525628562
H         9.23192821254178    6.61886131989403   10.39148076097900
H         7.58714817393017    9.12274332925542   12.06626564065163
H         9.10289153965459    9.20853599459821   13.99936466214778
H         9.72641363111520    7.13986823735279   15.18239480645012
H         8.82964101349837    4.96648052964662   14.42560934733972
H         7.31231953950579    4.87231536916312   12.47006399926385
H         1.82549018205215    6.10169106778847   10.19211900252069
H         1.59166003341334    7.85862874389146   10.02746186745089
H         2.83174455684013    7.03238878239948    9.06015139337064
H         2.03306378996686    6.42441277006496   12.47798416834291
H         2.09868246893768    8.21192722038243   12.51285506205937
H         4.35537319546907    6.33527890948205   13.39556307577049
H         3.15675163931837    7.08770144504042   14.48756988672773
H         2.40143183986228    9.77204154358154   10.98455522698436
H         3.63105636941257   11.76906073033375   10.32742447014128
H         6.00941233320095   11.62036547568882    9.67911350459753
H         7.16561917752506    9.43477641298245    9.77874465502602

