58
CSD_code = DAJDAV | q = 0 | S = 0 | Stoichiometry = C16H37BrCuNP2 | MND = 4
C        -2.50997700743770    3.53883020943863    0.09065697261799
H        -3.44143181424659    3.64719881318854   -0.47771969896643
C        -2.34027800462445    4.70627793182702    1.06089951045931
H        -3.12508993998819    4.68799680922323    1.81534751018694
H        -2.38330463430883    5.66646570158644    0.55166341942733
H        -1.37953059379536    4.62627850979303    1.56866763025539
C        -2.53347928699636    2.22788046948307    0.87590536536403
H        -1.55638102537331    2.02022633671701    1.30922720261585
H        -2.82467151435708    1.38334903914051    0.25521481069864
H        -3.25042286830717    2.29951122802115    1.69180435897082
C        -1.31338966924809    4.99732016048257   -2.22547354514220
H        -0.85261525367067    4.65667994669594   -3.16529015905703
C        -0.50545425641184    6.19110958193380   -1.72278022324965
H        -0.43283673092293    6.95936880012546   -2.49143567755418
H         0.50115593847547    5.87018752325708   -1.45488537705120
H        -0.96310394929950    6.63553497541898   -0.84231063110634
C        -2.76101431758457    5.37784976662758   -2.51067413857514
H        -3.23761110403589    5.79717571046969   -1.62826813402056
H        -3.34258902622634    4.52029948133700   -2.84422809160035
H        -2.79136461681875    6.13072490289189   -3.29760427062832
C        -1.51313105471726    2.16197320128564   -2.24058219317266
H        -1.88535183963035    1.32313359576280   -1.64934309549936
H        -2.29887714766250    2.47862823895668   -2.93096192686261
C        -0.26956935787158    1.71285475797312   -3.00407584982946
H        -0.53081998899822    0.90370460174631   -3.70997566771573
H         0.12564799594201    2.54847383061290   -3.59141428883345
C         2.04399977583165    0.96723871157885   -2.60782007712993
H         1.95384747480000    0.33314096887572   -3.50760520684911
H         2.58091095458747    0.39714463575969   -1.84783648825809
C         2.84598920256267    2.22354896863856   -2.96183698502873
H         2.36677604840447    2.73836347774934   -3.79976737452270
H         3.85672591846155    1.94245549429607   -3.26628305574446
C         4.50195713390922    3.04353738647605   -0.67607887468612
H         5.33279386083285    3.43537841693114   -1.27578655258573
C         4.68947408333116    1.54317398539378   -0.46912709260028
H         5.58228589372096    1.37164691918501    0.13027344746325
H         4.81178218016382    1.00904666385265   -1.40915382852252
H         3.84434527301952    1.12814944314318    0.07673347912430
C         4.47153330510099    3.72943655524907    0.69025011763707
H         3.67540374789131    3.30296857021611    1.29750433560345
H         4.30287468870761    4.80023808921289    0.60755230447812
H         5.41340151426766    3.56994678728873    1.21235018682690
C         3.27513270930930    4.98616699264942   -2.53977771626226
H         2.34851775432274    5.13909537975576   -3.11483008717348
C         3.45796818616358    6.18373402217734   -1.61001676561930
H         4.45122222517099    6.17453401201876   -1.16680670382804
H         2.72142572773914    6.17188930136494   -0.80662155099528
H         3.34602858478295    7.11537379053936   -2.16319963763452
C         4.43841380153896    4.89714376271030   -3.52291467265235
H         4.52403533110703    5.84036547398656   -4.06136828143321
H         4.29476262167413    4.10547563667949   -4.25364816756284
H         5.37925269485142    4.72554020605284   -3.00551508231673
N         0.74721611121367    1.30866947889696   -2.05593129295506
H         0.39891368026280    0.54752315570436   -1.47947395247989
P        -1.05207327325056    3.53424823025691   -1.07711494349485
P         2.89254486948814    3.43339681424895   -1.55071455783201
Cu        1.01482234747691    2.94773640850617   -0.35145973957135
Br        1.27310664067193    1.57835813660744    1.48866100487448

