39
CSD_code = DAJKEH | q = 0 | S = 0 | Stoichiometry = C13H15BrN6S3Zn | MND = 5
Zn        5.96458139741517    3.66846190031564    1.14749744825170
Br        4.45301670361191    4.35905787020819    2.77496558243327
S         8.89365512182928    2.10269156316759    0.22009222324386
S         8.12442200480301    4.38329065577277   -1.44275160722306
S         6.69634606905837    1.85124466785525   -1.69769189738460
N         7.30302864806331    2.69226559708358    2.35489953772395
N         9.11040303891869    1.54417994819973    2.86180843281303
N         6.57750853296413    5.51497995367131    0.49640639083100
N         7.69574010813496    6.96025027107020   -0.72955967012473
N         4.69019701574412    2.50218055270920    0.03380789005792
N         4.10185913245057    1.10349201744701   -1.56059614409748
C         7.47688117213466    2.97185922114020   -0.50828758501696
C         8.39460781222320    2.12639251800224    1.87927582125023
C         7.31326634063928    2.47300987440198    3.70352063551046
H         6.52117793355665    2.84082908216163    4.32439559722276
C         8.42536453461708    1.76734636306299    4.03094039949051
H         8.78443504607538    1.40659784620957    4.97196431365047
C        10.35910188707565    0.85258989542691    2.71764897301114
H        10.45092914164244    0.48958893751254    1.69438296575970
H        10.39172574562744    0.00998097937972    3.40774101412808
H        11.19733843060837    1.52095113899715    2.92961402330144
C         7.42203051068513    5.65975524898389   -0.50553509087754
C         6.28778679993573    6.77466214083260    0.93900684658652
H         5.61414282740412    6.92645520771888    1.75837474018069
C         6.96895125412148    7.67749168484645    0.18839417117121
H         7.00562102078034    8.74607332195055    0.22591529227322
C         8.55302268241611    7.48520372191539   -1.75292644341230
H         9.34716599639359    6.76765608415914   -1.95993995485594
H         8.98785756307788    8.42476875362814   -1.41519698040392
H         7.99268384112779    7.66000662824448   -2.67475345800540
C         5.10005932588596    1.83455424458208   -1.02647709836873
C         3.36878473501072    2.19282778004138    0.19322653960548
H         2.80035116854049    2.61354835298806    0.99821586734466
C         2.99176349684208    1.33154340958702   -0.78614473135759
H         2.05138995603707    0.86643057088052   -0.99600987303775
C         4.19790580629526    0.27402305695310   -2.72705474947445
H         5.11123510813203   -0.32101258119389   -2.68083569656029
H         4.23204961155579    0.88627465851031   -3.63147419504807
H         3.33371247856417   -0.38570313842332   -2.77085953059141

