38
CSD_code = DAJQUD | q = 0 | S = 0 | Stoichiometry = C15H16AuCl2NO3 | MND = 4
Au        5.34080787031302   12.99234886726825   -0.99401756096611
Cl        4.79347079007597   15.18747308903904   -1.49017960064600
Cl        4.33165652512929   12.33625901788932   -2.86017167658087
O         6.27585766946617   10.31307557576179   -2.48620021644960
O         6.91999295206111    7.86185747604593   -1.42342067242090
O         7.10572524025481    7.60096877809827    1.38443395767554
N         5.93954176724407   13.45967467839393    0.89896393002171
C         6.00163409340185   14.70698621342076    1.34244887659875
H         5.95593885186338   15.47985178557279    0.58800241463958
C         6.07793956532383   14.98811731769257    2.69071318299266
H         6.15883048318537   16.00675320552667    3.03086303539987
C         5.98405042977642   13.92970699411107    3.57886172992718
H         5.95724816912486   14.12004696475508    4.64214655737900
C         5.90847714026152   12.61884349597483    3.12539914099550
C         5.96578255990200   12.39540354078029    1.73641774792645
C         5.70743243898961   11.53509258542040    4.13963281600711
H         6.65654943712561   11.07953852831709    4.42172063282098
H         5.03872741432100   10.76657749953244    3.76108333813324
H         5.27010529544538   11.96109323137690    5.04041101171900
C         6.09283178958749   11.13107416560444    1.03134686494210
C         5.93791656132413   11.19167070517472   -0.35960078074113
C         6.24844931069573   10.09720031977798   -1.15590201390295
C         6.61262393934975    8.86434279399761   -0.56125208036386
C         6.71424008169577    8.79655404658972    0.84061382732176
C         6.48542662307060    9.92400273542990    1.61125721777274
H         6.67341112868826    9.87144170966310    2.66495409129171
C         5.83312665842928    9.33146587635920   -3.40570524550245
H         5.53026756594290    9.89529509999695   -4.28773649837070
H         4.97211157691697    8.78246364664094   -3.02124332184476
H         6.63374567118348    8.63449538321436   -3.66211295293148
C         6.86586325033161    6.50493767921564   -1.03356070997758
H         6.88253898821502    5.94344256901298   -1.96799012037002
H         5.94669052381131    6.27862628958756   -0.48994392109375
H         7.72659558510960    6.22460922025565   -0.42453665027277
C         7.18313976612400    7.47773665906713    2.78315701596017
H         7.43995864713356    6.43513218726695    2.96522866692342
H         6.22533476853165    7.70199077181169    3.26326416337061
H         7.96595887062571    8.11694929636430    3.20395380263340

