41
CSD_code = DAJVIT | q = 0 | S = 0 | Stoichiometry = C9H27CoIP3 | MND = 4
I        -0.94479252911838    3.43921628403368    4.36674219049359
Co       -2.38619063927055    3.43623385896026    2.30525121175705
P        -2.02607720834157    3.43682348691266    0.14728090642995
P        -2.94855449359723    1.33130682885441    2.59141237020457
C        -0.97693441200334    2.04349189058823   -0.43380710821982
C        -3.32016706297689    3.43665467071410   -1.16015169540705
C        -4.10681805811245    0.50932467133863    1.41655030814936
C        -1.70111621816399    0.00803976821036    2.81065882520245
C        -3.91017780894194    1.12175562997946    4.14072530422895
H        -0.08726929279954    1.99818441350639    0.19386006457770
H        -0.68313968638838    2.18726092850785   -1.47338745011162
H        -1.51792149686271    1.10406737575435   -0.33660189808677
H        -2.86374055097915    3.43664101633818   -2.14951192281191
H        -3.94688819436078    2.55387099073351   -1.04875583598368
H        -4.99590754866507    1.12865129834384    1.30344469079264
H        -4.39707958038715   -0.47227082112188    1.78974336304098
H        -3.63684422904266    0.39659613556157    0.44115507054018
H        -1.12395817547857   -0.11547914275384    1.89578307998189
H        -2.19093983241506   -0.93187667823109    3.06513364440019
H        -1.02364289803835    0.29787448248133    3.61213092161367
H        -3.27793571549004    1.37256350971947    4.99084357677415
H        -4.76680107475861    1.79619985512451    4.13041352620135
H        -4.25912521733716    0.09287809997958    4.23432084665127
P        -2.94806406063049    5.54143305716945    2.59174556153710
C        -0.97702359016502    4.83014681410281   -0.43395857457014
H        -3.94697459720820    4.31938385908327   -1.04881455486787
C        -4.10647102024891    6.36377059049093    1.41715958244225
C        -1.70103762839840    6.86530398134937    2.81068667416490
C        -3.91002062915894    5.75174595680512    4.14071399003207
H        -0.08736646633932    4.87556159144403    0.19370667813797
H        -0.68324719757739    4.68630528081794   -1.47353080812070
H        -1.51811190843370    5.76951254808494   -0.33681383623697
H        -4.99565650428372    5.74467917058281    1.30398435411524
H        -4.39670486083301    7.34543672127662    1.79025038962827
H        -3.63667223833025    6.47659343802601    0.44167163466713
H        -1.12395445469552    6.98897402186744    1.89570066468606
H        -2.19083794781535    7.80522167828635    3.06532769976785
H        -1.02332764193523    6.57541165513340    3.61205265356539
H        -3.27800535714803    5.50081095165728    4.99085106866099
H        -4.76674605486329    5.07759399203406    4.13029551974405
H        -4.25865591840003    6.78070613825005    4.23433731223446

