39
CSD_code = DALDOL | q = 0 | S = 0 | Stoichiometry = C18H13BrClN3OPdS | MND = 4
C         2.52433570182359    1.09782776381384    5.92274038875252
C         3.07025326875581    0.75455848748180    7.20037946979915
C         4.19217805946303   -0.08478172788674    7.25546873908216
C         4.72616006660583   -0.54595834823374    6.07774497585539
H         5.60088184834953   -1.17754108526239    6.10576636825109
C         4.15573427401605   -0.22681617388612    4.84035921094748
H         4.63711219620790   -0.62109854513564    3.95996118787691
C         3.02849840280927    0.56886469643599    4.70930298267698
C         2.34329437267785    0.82179043585929    3.43658431185631
C         2.53771503283747   -0.07826432391068    2.37906971187471
H         3.18979284644482   -0.92765547134947    2.51090957772283
C         1.88791197198434    0.06397944416623    1.17825442428745
H         2.04074243543891   -0.63448292797783    0.37117079093880
C         0.99371086626232    1.11862436866375    0.99450737201862
C         0.78019356184243    2.01106668662932    2.03980510408744
H         0.07077524725063    2.81816056460960    1.89811671767672
C         1.44402741703454    1.89562894742243    3.26351837955879
C        -0.54029382681529    2.20770392375891   -0.46976075852181
H        -1.39447569960101    2.15027572770530    0.21306097538094
H        -0.88631645650915    2.05313148244424   -1.49076996600434
H        -0.07896283822040    3.19860234695268   -0.39147623936499
C         1.63466744650564    5.40649105688522    2.88491094711167
H         2.62086745644686    4.94846521554478    2.89367165372112
C         1.41246126140003    6.62734382430322    2.27130252862868
H         2.22958978674820    7.15031311899113    1.80016893839454
C         0.13244740463661    7.16042203408800    2.27865390867413
H        -0.07218420207142    8.11148480009756    1.81166819785352
C        -0.87912687094900    6.44477785891658    2.90336335743218
H        -1.88845421949820    6.82283620196095    2.93676301607046
C        -0.57302251629002    5.23458289621716    3.49830998782473
H        -1.33345415169222    4.64549921300063    4.00979023952007
Br        4.93911145194419   -0.56071771264900    8.92840101610128
Cl        0.60897985165110    4.68428576843548    6.53863427443122
N         1.50297137094679    1.95434962614365    6.06710678231925
N         2.40907791957584    1.33092214355385    8.20745369138719
N         0.66089605577569    4.72575426314286    3.48945094597850
O         0.38908315801597    1.18265173325157   -0.22475415233554
Pd        1.03754844791352    3.25974343747771    4.71364599109800
S         1.26407160026640    2.28327824833221    7.64854495104156

