21
CSD_code = DANQOY | q = 0 | S = 0 | Stoichiometry = C7H7ClN4PdS | MND = 4
Pd        1.45636337865263    3.63212730088502    2.31659220110671
Cl        0.29320245063732    1.95065276799088    1.49533469216154
S         3.24992116559818    2.43554134348486    3.13542663428867
N         3.57033963147936    5.07586638717262    3.62771198869889
N         2.40295684104929    5.15954225765048    3.00457745597650
N         0.10237917458252    5.11155532102938    1.76391148852905
N         5.22981156817530    3.67638286578016    4.34696368058564
C         4.04805651439125    3.85209770840563    3.73828007421495
C         1.82891629620238    6.32037152188421    2.82803997953412
C         0.56788129964628    6.32794588347488    2.14843684774852
C        -0.16893673047301    7.48768750113886    1.87761232182788
C        -1.37536376125999    7.38097157322085    1.21574882641744
C        -1.83197953710865    6.12403313767748    0.83369795096557
C        -1.05658187161919    5.01354780329145    1.12960340040899
H         2.29706330149784    7.22997135276081    3.18558146778687
H         0.21753916755167    8.44504405585437    2.18917262047617
H        -1.95711351503376    8.26372599451298    0.99729167112683
H        -2.76965692613727    6.00576374271563    0.31651258202741
H        -1.36299143247911    4.01040398374157    0.85456422353472
H         5.70738599876478    4.46260367253276    4.75080017574555
H         5.58740698588244    2.74576382479520    4.46663971683823

