41
CSD_code = DATCIK | q = 0 | S = 0 | Stoichiometry = C10H22Br2N4PtS2 | MND = 6
Pt       -2.30627029585612    2.82227035051633   12.15853964732570
Br       -4.45384553342130    1.37819981953209   11.89495395123815
Br       -1.94739640935766    3.03087112658486    9.63985650840567
S        -3.68143147419300    4.77665333347447   12.27430309845861
S        -0.78378864256120    0.94553721577805   12.22035579736015
N        -5.90880582582876    4.52695205690664   13.68367739239761
N         1.66871286793975    1.13265217099179   11.30061522750750
N        -4.05377302251338    3.32223296143100   14.44033786200521
N         0.54817612053852    3.15855308756764   11.66790532276175
C        -4.62605775325797    4.12891761295755   13.55690108253906
C        -6.34904918819650    5.65019381795871   12.88358755019947
C        -6.95275961262236    3.55243919895483   13.96049836151977
C        -2.73531777947861    2.76139908547657   14.19561117083002
C        -4.61961993084773    3.00342690990940   15.73069809246700
C         0.58396024150342    1.82348687582815   11.68875665400571
C         1.56748675538174   -0.28230265665942   11.02796766626086
C         3.01934861585659    1.61791621058452   11.48368251037676
C        -0.48573349592412    3.82175346039353   12.42058923686770
C         1.26399611172271    3.94863514130288   10.68771581188674
H        -7.31089372016571    5.98557523285027   13.26644873203492
H        -5.63011344799308    6.46390346340815   12.96280900628849
H        -6.45257163296870    5.37769547956680   11.82879957378498
H        -7.64900603126277    3.53938160414311   13.12057098172375
H        -6.53383296409497    2.55383216842654   14.04257104586300
H        -7.50067932573477    3.81116933463843   14.86850081428448
H        -3.81626354996597    3.04520338685952   16.46906428611079
H        -5.38345715943605    3.72689713091198   16.00344936807158
H        -5.04081123915006    1.99559588554596   15.74068080737809
H        -2.76363386573759    1.71122067595397   14.50917235317087
H        -2.01321925021979    3.28733863226184   14.83868175200881
H         2.35201800193284   -0.55601916750751   10.32381056062850
H         1.67650395191822   -0.87789804005288   11.93866317093686
H         0.59809890397607   -0.50100827816012   10.58417979931860
H         3.56952384263086    0.90314937901193   12.10129347319029
H         3.53559619205103    1.71224064377768   10.52556968057764
H         3.01952043928463    2.57821707861570   11.99083578737049
H         0.53476442276005    4.53497891166442   10.12471783961299
H         1.97282531551525    4.62563681920369   11.16961946186702
H         1.77862715174564    3.30389934084364    9.98197158486037
H        -0.56031709972867    4.85542463887052   12.07913841115652
H        -0.20491068425289    3.81797789967394   13.48219856534124

