54
CSD_code = DEBXAK | q = 0 | S = 0 | Stoichiometry = C18H25Cl3N6OZn | MND = 4
Zn        8.00751977929917    7.86374785431286   24.90116947717343
Cl        5.84799838758407    7.01162140277848   24.93220953517320
Cl        8.53480569181066    8.94240181082469   26.77542579491217
Cl        9.34891791222420    7.21097767244378   23.16455624239918
N         4.77972923102800    8.06020551262533   21.35327533757463
O         2.95434514364474    9.92643095312159   17.48123477311736
C         3.69065718056902    8.50653251642890   21.91160995024314
N         3.68302976911601    9.33721843874880   23.01149615008871
H         2.83565479128143    9.50433573458755   23.53697276628711
C         4.90200250154018    9.66498495987875   23.52842943617892
C         6.08703937112396    9.22673104382673   22.95157451901380
N         7.05256208837290    7.72595037290688   21.33491496349872
H         7.94886015284672    7.75172928405733   21.86131720927962
C         6.00639906036884    8.31745353177058   21.85577469310699
N         7.13095650455620    9.66796760507645   23.71830792259329
N         2.49957374245384    8.14731909695093   21.41541614771725
H         1.66486927691721    8.56277268300042   21.79884012895930
C         6.58876148383276   10.36495164103616   24.67905040075223
H         7.15532963153052   10.85085694175372   25.44717704527470
N         5.22871288908931   10.40185164318422   24.61477641820004
C         6.92868820287037    6.72935487249153   20.29647307029882
H         6.18637801257995    5.98101263145744   20.59180508539267
H         7.90254317274046    6.24202891478149   20.20602237237795
C         6.53178806483440    7.33036973646280   18.97100340873035
C         5.71895492823718    6.62419634749785   18.09372018447693
H         5.35924916339263    5.64428019415280   18.37210283364893
C         5.37577913461409    7.16036472992084   16.86457572892724
H         4.74528574927855    6.60110739731847   16.18998585548203
C         5.83401506697595    8.41548525616509   16.50213929800477
H         5.56317814453669    8.83475175271660   15.54461457782495
C         6.64134603192584    9.12762202950754   17.37399637389912
H         7.00639543304588   10.10614831644330   17.09663377312798
C         6.99254408574831    8.58688913401249   18.59904213366121
H         7.62987700584520    9.14038916434283   19.27227987568079
C         4.34513874593146   10.87659940543326   25.66704868316437
H         3.32714340375046   10.86287582908055   25.25629291412248
C         4.44001551634706    9.91496462137674   26.84969698816383
H         4.27842404738901    8.89058820553289   26.51942549561767
H         3.70064620667881   10.16952695638247   27.60381896140786
H         5.43071659736927    9.96360945310246   27.29472453543224
C         4.70281582880107   12.30691644936176   26.05706791907006
H         4.71338826194307   12.95564880980700   25.18367941282770
H         5.67853361220250   12.34224385958703   26.53231890317652
H         3.96741399439922   12.68464351225773   26.76204622232835
C         2.36114108042362    7.40972708977226   20.17795971922360
H         1.55890070040116    6.67903799259287   20.30344406558574
H         3.30703370213651    6.89310623506990   20.01658016967092
C         2.05537150917651    8.32033188307472   18.99058029759729
H         1.96038057662546    7.70944191810995   18.09325248179641
H         1.10961080141012    8.84471855515333   19.13723479926040
C         3.16857937658120    9.33740339845464   18.74414209147501
H         3.16162137447313   10.11248686167591   19.52698303167046
H         4.13587268377232    8.82572820037034   18.78106452752557
H         3.75760519442109   10.37795958721974   17.20391529780025

