42
CSD_code = DECKUU | q = 0 | S = 0 | Stoichiometry = C21H9BrN5O5Re | MND = 6
Re        1.85857083357616    2.51840323718786    1.49195287435506
Br        0.55593607089863    3.85690314469638   -0.28956157792275
O        -0.40724613378974   13.80742026418518    5.77697577649256
O        -1.86057802339932   12.30779286808597    6.28475136123050
O        -0.18603560993789    0.22213493492656    1.13346580510543
O         3.66207708329548    1.42323148846988   -0.77311438433476
N        -0.82954776090530   12.67226166011930    5.76467904679989
N        -0.11725582575975    8.13402490510205    4.34128955952291
N         0.63540811756478    3.64464237410998    2.85724796757021
N         2.93231474617875    4.37066844274763    1.70983588485931
N         2.28756412653824    8.89921337634263    3.12726400841209
C        -0.03687095982799   11.67196600333028    5.08142546915437
C        -0.47966276042796   10.37457528075923    5.04851639488132
H        -1.40740750524540   10.08723116228557    5.51875189738177
C         0.29864007024046    9.40779572733469    4.38309608594982
C         0.63589708166773    7.26018832079117    3.70495417123586
C         0.20029597737062    5.88245745205065    3.64145514723996
C        -0.99382790817699    5.45354890539665    4.22355767947525
H        -1.61316286612772    6.17130362873983    4.73667504184477
C        -1.33751577183394    4.12152858805495    4.11592125067013
H        -2.24958706915202    3.74383540200814    4.54858747957247
C        -0.49621495194378    3.25526014855264    3.42836214605618
H        -0.75035798969527    2.20774855679034    3.32934573627449
C         0.98957201771555    4.94089931802662    2.96220049560157
C         2.23094922740094    5.33401235885346    2.33985213366894
C         4.08048190357851    4.70353316322041    1.13638140098277
H         4.62138680518845    3.90660210473438    0.64240896250837
C         4.58563354967543    5.99831625732267    1.14237777202950
H         5.51998228186641    6.20568023918781    0.64664179347248
C         3.87579239081328    6.99711709571901    1.77606349472546
H         4.21564001770802    8.01972240830209    1.80482610136863
C         2.67102113690081    6.66621981911836    2.39971898227197
C         1.86466369399987    7.65029084524705    3.08574272458583
C         1.52644265615618    9.79988017635895    3.76204730176115
C         1.94087996720354   11.15016855444601    3.82192177391726
H         2.86858297664868   11.42069715760931    3.34388979135599
C         1.17097198761427   12.06963635265488    4.47063771288775
H         1.45854044938442   13.10813268135758    4.53349119898372
C         0.60969747907193    1.02997925719251    1.28039469618037
C         3.00541510555828    1.78002232831945    0.09226229211780
O         3.42203106365685    1.15195826444135    3.77599587828962
C         2.84208231875040    1.64919574582277    2.92221067146392

