36
CSD_code = DECKAZ | q = 0 | S = 0 | Stoichiometry = C11H19Cl2FeN2P | MND = 4
Fe       -0.37212202467014    1.24862568384920   11.10815470037779
Cl       -1.49338868138739   -0.23138910527418   10.12203238620176
Cl       -1.08592368146319    3.10298543045092   11.32617737368726
P         1.41058908652523    1.69379398344135    9.94323173971956
N         0.70223348380637   -0.05810487564906   11.94915621849592
N         2.53446520679944    0.74099549425106   10.81053370703825
H         3.51853856536983    0.68104936864322   10.58499147259166
C         2.04226378207116   -0.11709950836835   11.75990855488150
C         2.85626057429594   -0.96383995137442   12.50227968962866
H         3.91820839461639   -0.98354097695786   12.31072027078353
C         2.28910834334056   -1.76889656085760   13.47528266368426
H         2.90369608360701   -2.43363680534172   14.06076605864786
C         0.91374277665772   -1.70897538888753   13.66968886862805
H         0.42880523497949   -2.32496936729686   14.40854751440984
C         0.16703834669189   -0.86312893957228   12.88041016789389
H        -0.91161786218737   -0.82034702211609   12.96699879137193
C         1.60813371589690    1.04389665599699    8.20431298246622
H         2.62242835675774    1.26951345529283    7.85408840809895
C         1.39558155506419   -0.46553496764348    8.18784216740798
H         0.41800327480475   -0.71276246444308    8.59701585115878
H         2.15516047720959   -0.97897817053763    8.77567970012878
H         1.44533611086762   -0.83681427100780    7.16593828012582
C         0.57442818704713    1.75232820829794    7.33513492779012
H         0.64346741369950    1.41599459214786    6.30235001019280
H         0.71465370715997    2.83204453756238    7.35808948703602
H        -0.42351057207881    1.52493251436914    7.70663798603915
C         2.30572102607876    3.33831155674698    9.90775757768702
H         1.60204468842541    4.03068391482945    9.43045228400941
C         2.49311637082622    3.77475222278187   11.35966450316399
H         3.21666552304454    3.13606326906700   11.86387282669174
H         1.54618483829716    3.71380632078970   11.89453706508639
H         2.84932236571152    4.80179137209000   11.40751036026147
C         3.62956958726332    3.37041650466996    9.14916099494207
H         4.11103342152527    4.33409738874526    9.30911424723213
H         3.48353305217635    3.24830196977223    8.07913958679181
H         4.30972927116729    2.59763393152903    9.50312057564656

