34
CSD_code = DEFMAD | q = 0 | S = 0 | Stoichiometry = C13H14F2I2N2Zn | MND = 4
Zn        3.11579749160269   18.01312195588032    7.13698937877227
I         3.60515855485842   16.00829592125774    8.61884223313084
I         1.18193722769843   19.33593526398554    6.29795717956538
N         4.39503304104119   17.48930551980374    5.43856810948281
H         4.01804704591343   17.09589695188714    4.57771942126073
N         4.67840415588000   19.39787647219427    7.54234124231435
F         7.67512937489026   16.71626860769313    4.55852139340360
F         5.83455720335357   16.20918602758430    3.53124467074552
C         6.40368580007114   16.28132628784529    4.76707166109695
C         5.61925042392587   17.25342184239392    5.63856431715470
C         6.34562762095236   17.76831782877754    6.83977313548120
H         6.14507603908103   17.05281323224038    7.65256477116585
H         7.42018077040255   17.77653594034643    6.65250857438143
C         5.88662004352128   19.11788627024175    7.27986171620807
C         6.84329531325856   20.26207051045844    7.42945858246802
H         7.24274401039416   20.52730777781499    6.44732698237513
H         7.68565128147272   19.99286638643435    8.06736134270256
C         5.95729278142291   21.36519407680444    8.02433827303355
H         6.04535536728527   22.30174723258968    7.47909603652716
H         6.21783363772003   21.55093681420862    9.06547407365515
C         4.53145654579531   20.78643273764184    7.92107930970285
H         3.97965146286507   20.83908233795058    8.86216471021641
H         3.92839705152340   21.28681644283906    7.15821984247362
C         6.35620270336968   14.95123299353249    5.48707843639972
C         5.20022604763612   14.18471111487377    5.41286957340939
H         4.37519518948118   14.50378271282096    4.79337406249101
C         5.11569193061346   13.00547503714397    6.12973713900507
H         4.21544761621504   12.41430633273896    6.07830895783415
C         6.17606101095616   12.59657464845353    6.92034864905696
H         6.10141405698740   11.68329783926364    7.48924747690619
C         7.32990974858806   13.35932207871774    6.98485471989047
H         8.15974546489780   13.03920888827864    7.59540855413011
C         7.42350401536384   14.54265023197478    6.27492303926749
H         8.32241997096087   15.13879568322564    6.32030243430327

