31
CSD_code = DEFPIN | q = 0 | S = 0 | Stoichiometry = C8H16Cl2O2PtS2 | MND = 4
Pt       -2.09509868813286    2.70203020074765    2.17694076631104
Cl       -3.35686155131860    4.37017888061563    1.33719623190920
Cl       -3.91190711097458    1.56865947810392    2.88306709551119
S        -0.18966134701334    3.71167193173763    1.40147536063299
S        -0.71873874306679    1.12248706681765    3.10525409174176
O         0.67865324475702    2.69090486133223    0.82922423264519
O         0.37783118004227    1.80725841928620    3.77754148086744
C        -0.29481131860326    5.12323886961411    0.22798014267294
C         0.61476567666380    6.20079969362065    0.78783776117989
C         0.49179485207011    6.10936545779073    2.30727022926912
C         0.75049431005914    4.65885247898836    2.65479339761493
C        -0.01922537766073   -0.09837040344654    1.93190896628977
C        -0.71905186654830   -1.40054265028793    2.26008475021504
C        -0.77918205309673   -1.47035160745826    3.78427778359169
C        -1.39193477019446   -0.15917824182775    4.23727911033467
H        -0.00331905185080    4.75409704021123   -0.75043188944362
H        -1.34023909409880    5.42812352857741    0.22382510354926
H         1.64853819651570    6.01126596028319    0.49210876268591
H         0.32598635939656    7.18627592612194    0.42261858945580
H         1.19820372417081    6.77096158078553    2.80890621200510
H        -0.52012233750145    6.38680424040212    2.60904962049014
H         1.79047005245669    4.36702482683191    2.52800603115199
H         0.40677103090472    4.36271374952897    3.64168067747170
H        -0.18730609249508    0.25994482007353    0.92038402982687
H         1.04857375528827   -0.12237634854992    2.13638963543798
H        -1.73277066082027   -1.38893086784017    1.85507248479031
H        -0.18674338657974   -2.25362305592301    1.83893586168265
H        -1.37273551995151   -2.31961451489856    4.12267680286671
H         0.23070233705528   -1.57060844261055    4.18697857778584
H        -2.47219140752423   -0.13867199445288    4.10145557362671
H        -1.13168434195372    0.13150911582470    5.25031252581893

