43
CSD_code = DENCUV | q = 0 | S = 0 | Stoichiometry = C25H15AuClN | MND = 4
Au        2.79241953446734    1.58912865818453   10.39047174349471
Cl        0.59809982333340    1.78786906416869   10.54637276126519
C         1.83530702918986   -0.45977185177294    8.26827581116104
H         0.80805255751232   -0.21013797941731    8.49461970049072
C         2.84447194337426    0.17103808724524    8.93593395563711
C         4.19777955205807   -0.17745281231407    8.61571471420541
C         4.47260415137244   -1.12850606982456    7.65769496302004
H         5.49238672276195   -1.39301516110716    7.41436637287016
C         3.43189969880301   -1.78079476681452    6.97364107466858
C         2.08736118241038   -1.44131397168859    7.28154093793650
C         1.04512728646220   -2.09530153439091    6.59604588731501
H         0.02504317895316   -1.83128365302276    6.83438363254927
C         1.32006176796386   -3.04451422589332    5.65039588268088
H         0.51576421223643   -3.54287524782562    5.12920214292842
C         2.64863861045419   -3.38224733090293    5.34659571496123
H         2.84572351781402   -4.13547932497830    4.59785282479639
C         3.68226556414655   -2.76435626369863    5.99225069151619
H         4.70705845321338   -3.02032075913124    5.76193627025209
N         4.72546117039767    1.41068843823293   10.25608050178851
C         5.21836892025257    0.53247045175124    9.36745621053313
C         6.60072966303660    0.39237764138112    9.25991040207946
H         7.02260741975557   -0.30388082686390    8.55456901075053
C         7.41980295974986    1.15943141071998   10.07155517625148
H         8.49255919719067    1.05893348492528    9.99765429379176
C         6.87335949429484    2.05303068548936   10.97753660178283
H         7.50754773108892    2.65003119773288   11.61130975708252
C         5.48715065769620    2.17040103164713   11.06002666024436
C         5.29814958541455    3.90184795237608   12.84991692770299
H         6.37247679080307    3.97059596040262   12.95040479306568
C         4.72582213663238    3.04078831101011   11.93956966732861
C         3.30090473360063    2.95250641317627   11.80908716450138
C         2.52485644647638    3.74231495560772   12.60671647573400
H         1.44829947282432    3.69082410318498   12.52320496058492
C         3.08454298936861    4.63454092024369   13.55086200108254
C         4.49755981162848    4.71287774215884   13.67318121050079
C         5.05495217415233    5.60098630124943   14.61858516849512
H         6.13087703509938    5.65649174179412   14.70831055789557
C         4.24963206003855    6.37488669194542   15.40565874261375
H         4.68125863095034    7.05162611148481   16.12857400146552
C         2.85304215523964    6.29785026040545   15.28274371377248
H         2.23242236201787    6.91799839890251   15.91288034178272
C         2.28288370552056    5.44739401810279   14.37577558979321
H         1.20896791024278    5.38412174612270   14.27693498762836

