56
CSD_code = DEPKUF | q = 0 | S = 0 | Stoichiometry = C25H25Cl2N3Ni | MND = 5
Ni        7.59788036441811    3.27568814181237   11.70097122990896
Cl        8.01331669211373    3.21948023426600   13.67585020251844
Cl        9.29759609654375    4.55263361676783   11.19583142553016
N         7.13962386468926    3.24973355005940    9.92567093240107
N         8.43319902172673    1.29096277855436   11.12416900121341
N         5.98206394468126    4.76390842061732   11.61652566167710
C         6.39166146953800    4.22507452117697    9.39806991372800
C         6.20822305786956    4.32073070179865    8.00721384048099
H         5.60755176972123    5.12500859297883    7.61116754693717
C         6.80418097161901    3.40516613632319    7.17655788442585
H         6.69435510164533    3.47656295408752    6.10465838238460
C         7.57235911622896    2.35927943047177    7.72830853570396
C         8.24782607275153    1.36073592438280    6.97289950272876
H         8.16342464412442    1.39288600740461    5.89650036370885
C         8.99221138369913    0.39855596688334    7.57819797809230
H         9.51117822861784   -0.34385069779845    6.98964110996540
C         9.10743716900096    0.32863050289154    8.99675319077731
C         9.85095044861163   -0.64041306966166    9.69100724945238
H        10.39474090657914   -1.39528902569610    9.14132525876390
C         9.87471614109043   -0.60385451976683   11.06531582653496
H        10.44222953749177   -1.32761096682551   11.62880334265413
C         9.14680899211030    0.37984547154383   11.74690519781858
H         9.14361511149495    0.42498839983372   12.82790768312393
C         8.42685072856021    1.28544933374371    9.77471708815203
C         7.68633496007453    2.32245482885945    9.13117278755896
C         5.84627456067204    5.12113924359482   10.38649188423394
H         5.33655020448298    6.03348150676065   10.08103768525430
C         5.58259735277574    5.54145682712097   12.69107746873414
C         4.79906655884507    4.89939918402089   13.67200332286521
C         4.35733994933868    5.63743742741725   14.75472998233631
H         3.73558896032813    5.17609693396558   15.50473548213486
C         4.71238184096488    6.96845511320261   14.89272519108519
H         4.35601637790588    7.53535903614354   15.74025027191344
C         5.54442963898852    7.56542891804565   13.96575418581095
H         5.84770902582366    8.59085180030166   14.11220945951189
C         6.00030819869666    6.87475724551182   12.85185838623699
C         4.42202470321174    3.45217919202043   13.47226825453397
H         5.24817454460531    2.97038130386252   12.92312245291738
C         4.24366163135453    2.69422477743501   14.78450801090303
H         5.11375461466294    2.84152903703935   15.41885279259603
H         4.14424429778658    1.63020771603799   14.58026583797225
H         3.35173627024519    3.01723388315558   15.31667210933041
C         3.15724748548128    3.35737813881935   12.61308670829282
H         3.30393106619113    3.84395253178690   11.65039679733503
H         2.32273548668242    3.84058200019192   13.11838016074787
H         2.89768060123364    2.31568901851810   12.43650792908475
C         7.00744203102602    7.52420541921568   11.93272874700717
H         7.31426188868882    6.81600504370253   11.15791202886296
C         6.41850262696020    8.76134790782021   11.25078349451947
H         7.13759101224185    9.17495689613293   10.54742846269658
H         6.17608640874561    9.52821525891353   11.98247097895621
H         5.50753457576169    8.51239990995074   10.70796719046748
C         8.27375042439801    7.87497741265426   12.71764690894717
H         8.68996580305008    6.97265030345602   13.15802041749496
H         8.07041671364410    8.59168877409038   13.50925981840411
H         9.01695935021718    8.29707500440334   12.04560644217332

