59
CSD_code = DEZZAJ | q = 0 | S = 0 | Stoichiometry = C25H30ClPPdSi | MND = 5
Pd        1.16987611113068    2.60061655901779    1.94539844133179
Cl        0.18562533346178    2.75542855086921    4.04194755447076
P        -0.70425250007979    3.18456042281959    0.82849167613568
Si        3.56496013255873    3.81280409799022    3.06797460813304
C         2.52094508221672    2.25694179461739    0.38186071577845
C         2.89330181022827    1.44116666334278    1.47446092249904
C         3.06171303662751    1.98106683809611    2.74937677810159
C         3.19521291847403    1.03907101877236    3.91560077788525
C         2.39422323568310    5.19569312225647    2.39201126142703
C         5.30057555944254    4.05148080677768    2.28988131862543
C         3.67423799177083    4.08340687475108    4.95462332365020
C        -1.67686921407074    4.69190859356543    1.13893704797182
C        -1.69314818148686    5.19745305633975    2.43589565995681
C        -2.43496498982538    6.32739046317937    2.72852575207084
C        -3.16138503757970    6.95908154114718    1.73219782569342
C        -3.14939728318734    6.45624167082055    0.44116854214575
C        -2.41070490569798    5.32612304612609    0.14043939602471
C        -1.87677587039309    1.84102584447860    1.19778648924045
C        -1.33515696729097    0.63020792813341    1.62688631528290
C        -2.16545949073369   -0.43363361526819    1.92687095634178
C        -3.53895694379560   -0.29308949806529    1.80550783330179
C        -4.08118111928755    0.91015928309029    1.38430851196399
C        -3.25528583889990    1.97763935322183    1.07957425878450
C        -0.59363194628447    3.16194012632043   -0.99069992835057
C        -1.17201282864254    2.18218880209712   -1.78697259741128
C        -0.98424670132884    2.20838131147701   -3.15887900751641
C        -0.21980973059706    3.20475626825672   -3.74111354498655
C         0.36726321987244    4.18065607506831   -2.94919170873550
C         0.18646536859492    4.15438981132923   -1.58092039509347
H         3.01778432212841    3.21394248536948    0.24211385157837
H         2.27012616141658    1.76277541078312   -0.55331891348912
H         2.81485050289896    0.35520052574242    1.36487538986227
H         2.92200382264793    0.01782362873631    3.64318036228353
H         4.22304828945636    1.03649798880735    4.28273776416579
H         2.55185336786635    1.36089214588009    4.73402532343870
H         1.41474132750095    5.13417318728978    2.87774414057435
H         2.24342363178383    5.14898505788291    1.30981872342079
H         2.80718889752976    6.17480157741721    2.61857284243269
H         6.01498146302901    3.36138604155722    2.72526514274398
H         5.31035825934025    3.89826135319727    1.21581037754114
H         5.65605817926864    5.05664957341736    2.48404545694271
H         2.71540969758078    3.90164155306394    5.43031344407152
H         4.40807040099262    3.42840654089496    5.41181397155423
H         3.96505490754832    5.10555214064348    5.17252989465975
H        -1.13009635423959    4.69049633354758    3.20941565389600
H        -2.44489957118984    6.71601390381927    3.73586728327022
H        -3.73837637151650    7.84345204904714    1.95979894447632
H        -3.71889278011223    6.94557847109857   -0.33595288124665
H        -2.40302466919736    4.93802096342540   -0.86883599022956
H        -0.24700588621177    0.53261518367402    1.74102882790155
H        -1.74631062070239   -1.37001435241207    2.26504055900722
H        -4.18849330970452   -1.12117964774901    2.04831118721622
H        -5.15258890998362    1.01895568928064    1.29850088676504
H        -3.67656070544056    2.92045426025458    0.75901317769287
H        -1.76770111356909    1.40173274034206   -1.33429558031196
H        -1.43730726990855    1.44584089718977   -3.77563958029773
H        -0.07660345131804    3.22056694210618   -4.81139851509318
H         0.96732487685128    4.95623107227237   -3.40233467403796
H         0.64302265451198    4.90608947256498   -0.94729585540792

