67
CSD_code = DIFCUS | q = 0 | S = 0 | Stoichiometry = C30H31Cl2NP2Pt | MND = 4
N        -0.75143104452313    4.33070074484300   -0.06133024501594
P         0.48999865583210    3.58838493720182    0.88573820385375
P        -2.15830311948643    4.20361782218557    0.92371296923766
Cl        0.54953133010142    2.46029184216337    4.11998352183232
Cl       -2.65244514917326    3.10128564398005    4.13701206509584
Pt       -0.96235524585922    3.24951579260494    2.62342218334877
C         1.14852903999415    2.21603502208359   -0.09265450476644
C         2.44839394989251    1.76639125224069    0.12628849650193
H         3.09213295456546    2.29984709387375    0.81145533246921
C         2.90196529077496    0.62968753757742   -0.51786819973091
H         3.91224605295469    0.28631631717132   -0.35166643236761
C         2.06056154508734   -0.07540040370648   -1.36335383421706
H         2.41873547220767   -0.96203702966223   -1.86476044668534
C         0.75031849635644    0.34029444850888   -1.54315839479862
H         0.08408229948506   -0.22861483865802   -2.17504293004580
C         0.29068541721505    1.47240800564816   -0.89851946371259
H        -0.74095915303839    1.78104038039998   -0.99720108398934
C         1.84759353019973    4.77802812690288    1.09507770843167
C         1.76786911183129    5.56869114100141    2.23777090141322
H         0.94904703147155    5.40122156623206    2.93091997250526
C         2.73379832487308    6.52362260608031    2.49408916202304
H         2.67109796209571    7.13156702439454    3.38377322130066
C         3.78940820223027    6.68846247419148    1.61153135701904
H         4.54833849177993    7.43080058525274    1.80867093286165
C         3.88219798598545    5.89210406918318    0.48057086153110
H         4.71243348112017    6.01457395773444   -0.19968256066458
C         2.91793354837496    4.93523193670212    0.21946124337302
H         3.00227559386775    4.31126356825975   -0.65951496381466
C        -2.73144407964799    5.90093108829047    1.22922340829331
C        -3.56564991401416    6.59644274821973    0.36083041867740
H        -3.93826230667743    6.11668145983868   -0.53397473825700
C        -3.92360378279115    7.89990360532095    0.65492763703952
H        -4.57012238633490    8.44378029825268   -0.01806549699096
C        -3.46103728131762    8.50602433805845    1.81251484066916
H        -3.74880171550873    9.52221172228617    2.03750073341816
C        -2.64309988694645    7.80836320602216    2.68780540822602
H        -2.29872919355462    8.27659633774609    3.59744622380519
C        -2.27970369536075    6.50694402741624    2.39706586807308
H        -1.66278918452064    5.92884363514905    3.08052273160027
C        -3.48304514980703    3.51274249075199   -0.10130033435318
C        -3.34389882046796    3.03354941163728   -1.39740230362689
H        -2.39332787166802    3.10479414950695   -1.90535948622270
C        -4.43206303613423    2.46891847640073   -2.04087264886554
H        -4.32571877911763    2.10333570127613   -3.05198599740922
C        -5.65123965655537    2.36737044744242   -1.39198395337234
H        -6.49464623654179    1.92240416759712   -1.89853409168948
C        -5.78778666275476    2.82563288183042   -0.08960845262840
H        -6.73462618567683    2.73256654725152    0.42063716543807
C        -4.70721191686501    3.39244694414405    0.55640739801570
H        -4.78567561790887    3.73898965099009    1.57911944860173
C        -0.65637171397712    5.22400385376451   -1.21153714611514
H        -1.68541520307619    5.35543846956261   -1.57636319671312
C         0.19178203902246    4.61636943189279   -2.32641393244926
H         1.20739171846570    4.47055793642250   -1.95465896729396
H        -0.20083998422923    3.63702666148317   -2.60689814329143
C         0.21428290402468    5.53512543567196   -3.54526756494800
H        -0.79764866484541    5.62637359878090   -3.94730382663811
H         0.84362739849560    5.09528550787521   -4.32115527739357
C         0.73465525850219    6.91908589564676   -3.17143577951010
H         1.76836525409493    6.83860733276693   -2.82792184859707
H         0.72133526810788    7.56916041773471   -4.04794548632845
C        -0.11900152850647    7.52147223306841   -2.06031411198803
H        -1.14419350830395    7.65185141518646   -2.41479765181793
H         0.26604122270661    8.50379124132606   -1.78200653137312
C        -0.11375784649724    6.60660950118662   -0.83988063564026
H         0.90629973099833    6.50711939603373   -0.46812519062658
H        -0.72274904102641    7.03391671177758   -0.04091356070598

