41
CSD_code = DIHPOZ | q = 0 | S = 0 | Stoichiometry = C14H18Cl2N2O4Pd | MND = 4
Pd        0.58568464781870    4.94196556890166    0.63464690444095
Cl        1.21730202332761    5.60839481304758   -1.40484880309810
Cl        0.12899266792077    2.89596122006046   -0.13361428678314
N         1.03668455917378    6.66641772224636    1.52488185071241
N         0.12542574556103    4.34015920438055    2.67122864957227
C         1.70220769124867    7.67944925420377    0.97236941514941
H         1.93096882251754    7.56739479137133   -0.08191662285228
C         2.06914003574645    8.80414230652052    1.69017428240467
H         2.60359508093010    9.60184338360703    1.20054891031891
C         1.74051773897655    8.88130352433654    3.03492109606111
H         2.01472993176515    9.74088068269615    3.62665998404426
C         1.04617862949159    7.82625776363537    3.60651307958859
H         0.76094342647354    7.84784196995926    4.64644655575435
C         0.70412545494952    6.73500988476475    2.82238407602070
C        -0.11104820158923    5.59904287868110    3.38631163628714
H         0.11921708968808    5.47094049660462    4.45880718816751
C        -1.63592440621972    5.87152873488750    3.21775298190001
H        -1.79071749147369    6.71147872517796    2.53308197034975
C        -2.21258548883681    4.57628669270796    2.62773248578712
H        -3.13730738569950    4.26824972771525    3.11684172608448
C        -1.09294245403245    3.55435932720624    2.85345472921003
H        -1.14972633921019    3.16377723158103    3.87969272903202
H        -1.11758559286404    2.72914408554103    2.13688248071188
C         1.31076675620348    3.63044050839555    3.14074586502561
H         1.20924221666235    3.35242080393250    4.19971553640880
H         2.19925631722667    4.25732529812783    3.02207019783862
H         1.43444545320988    2.72378183837432    2.54434303026317
O        -1.99042953530643    7.48559771231998    4.88335992051941
O        -2.84456546380170    5.44958869353533    5.26765154118885
C        -2.24486134398421    6.21570790698180    4.56405849754414
C        -2.49789523266148    7.93807604487455    6.13534151461993
H        -3.58821042554337    7.89905169808975    6.13533451988266
H        -2.15382947942773    8.96219828022594    6.24927052593875
H        -2.12446934423542    7.31053631977173    6.94636091286337
C        -2.43477321481254    4.72734685538529    1.12543786599267
O        -3.22803406893118    3.79463037710338    0.63937129817197
O        -1.90907375578679    5.59890171191868    0.46746460180574
C        -3.31078731902534    3.73518553295690   -0.78654775577055
H        -3.72110359796663    4.66552148519790   -1.18144023144345
H        -3.95820137829208    2.89443018796900   -1.01646182146141
H        -2.31015276919157    3.57832875500324   -1.19762903825257

