58
CSD_code = DISBUD | q = 0 | S = 0 | Stoichiometry = C28H21Cl2NO4PRe | MND = 6
Re        3.29775594858525    2.48080610404197    0.29967106695472
O         3.87870818678552    4.02280304795393    0.50551353201355
Cl        1.20328617765215    2.99430256778661   -0.42774019181904
Cl        3.75811958649133    1.74439346744043   -1.80257778880738
P         2.44668170765911    2.51137579163994    2.61686763215206
C         2.27061980704702    4.18543202779378    3.29909926100882
C         1.70532592332169    5.15049013957697    2.46994689166234
H         1.42823233485908    4.88311376297137    1.45856332306217
C         1.52073128400844    6.43785360978843    2.93903645371004
H         1.08719865668954    7.18702117540918    2.29419548324763
C         1.89887972745252    6.76722677306165    4.23122662499511
H         1.76014862279334    7.77437220067207    4.59523855183678
C         2.46307201371942    5.80794824395243    5.05582604531369
H         2.76309025886884    6.06590277324038    6.06094540419567
C         2.65028688993082    4.51650363950057    4.59552674727634
H         3.10201284991065    3.77371043912829    5.23893569923668
C         3.67215113104807    1.69295824557516    3.66828627363815
C         4.91052878782107    2.31986094249082    3.81109151361636
H         5.06324416736043    3.29553869976942    3.36676251153473
C         5.92822624605052    1.69020399918708    4.50051173629347
H         6.88392865329357    2.17994025268648    4.61091364133192
C         5.72284017676479    0.42736404989485    5.03648929021554
H         6.52144077686800   -0.06835241375683    5.56758036953131
C         4.49786321795225   -0.20141352421046    4.88812797035991
H         4.34178022059950   -1.18681764580544    5.30063742751244
C         3.47097062047952    0.42610774235044    4.20426043657735
H         2.51606230825472   -0.06509016383376    4.08122354127417
C         0.86100504541091    1.72235343879718    3.01849767231436
C         0.11682106096927    1.01996795134033    2.07945639455886
H         0.47002027123423    0.93574150847404    1.06363719281978
C        -1.08240432095873    0.43647996161428    2.45282935593206
H        -1.66118731293621   -0.10702955849379    1.72127058216228
C        -1.54126242322058    0.55250341577372    3.75367186481897
H        -2.47809343381151    0.09800255426483    4.04024601159155
C        -0.80061014493657    1.25722970000119    4.69070251035301
H        -1.15895281657134    1.35211914128034    5.70521155463397
C         0.39645169085741    1.84351695836315    4.32753645249361
H         0.97313726049495    2.39804014134694    5.05490560643389
N         5.20402356678849    1.44973678801912    0.88461190667469
O         2.77151206248121    0.51933643977957    0.69163443644823
O         7.30580354164059    4.16707499317447    1.17627303563348
O         6.12115841476825    3.60767133869826   -0.64341501275908
H         6.18921817085885    4.54211483650112   -0.89918548774684
C         6.41369742156076    1.96587939484074    0.98782388117175
C         7.49584067869666    1.22712135388916    1.50159217418014
H         8.45226708928791    1.71855917695702    1.58159609936685
C         7.31521153792010   -0.07590535854133    1.87437982635754
H         8.13311797320288   -0.66362121743958    2.26344560635085
C         6.03892313810933   -0.66406978608976    1.74467286164157
C         5.72365029482047   -1.98647737612706    2.08674497084060
H         6.50173784790389   -2.63015478217943    2.46601772103213
C         4.43648938765029   -2.44980567846037    1.93325483936606
H         4.20745416445646   -3.47291597306329    2.19353592418534
C         3.41019986861228   -1.63958706761866    1.45924425842260
H         2.40658730350168   -2.02122560857979    1.35565750013858
C         3.66559357921333   -0.31691456118749    1.11127242243298
C         5.00698942358959    0.16984794709801    1.24163230420784
C         6.65621337609965    3.37505397935396    0.54598608604402

