26
CSD_code = DIWZAN | q = 0 | S = 0 | Stoichiometry = C6H15AuBr3N | MND = 4
Au        2.42368988904349    4.26070839451134    6.89415006387150
Br        0.43684581307514    4.92962136073243    8.09468024752309
Br        1.05661516287117    3.27422590734451    5.09735447995271
Br        3.78424483253869    5.47750348497872    8.53039963602981
N         4.17469176922238    3.52825103081168    5.75769913048774
H         3.70719875442292    3.23325874653206    4.89540026577264
C         5.09566471740158    4.62293075836763    5.37942530278288
H         5.53584648915524    5.02148637591010    6.29796662185112
C         6.20267769545597    4.14080393950459    4.44322369418790
H         5.77938739575644    3.63418884740058    3.57750918348223
H         6.89556410615389    3.47170487986915    4.94552327320255
H         6.76804752874362    4.99880394001870    4.09117911986978
C         4.29006641014922    5.72133543341282    4.69406303039544
H         3.79795579370124    5.34103936218251    3.80017415591374
H         4.94639230417430    6.53778380447830    4.40738502259251
H         3.53038523742829    6.13181967608138    5.35881041010926
C         4.79048744242893    2.29841846625809    6.31562019314949
H         5.47863210951924    1.90303653208576    5.55733661074283
C         3.70406075290703    1.25373512742667    6.54547657714215
H         3.01979358841641    1.57168336851662    7.33241746458237
H         4.15701818262244    0.31680297868299    6.85745317236455
H         3.12905745872620    1.07080315096268    5.64005000423480
C         5.56903380349173    2.55272762718653    7.59793927956103
H         6.35376688633532    3.29036217542691    7.45919193962844
H         6.03191600511320    1.62348667768560    7.91921025756354
H         4.91505987114610    2.89427795363060    8.39456086300601

