63
CSD_code = DIXDEU | q = 0 | S = 0 | Stoichiometry = C22H35Br5Ti | MND = 8
C        -1.45876369509087    4.81366662514051    6.15217963570160
H        -2.21253780940275    4.06105504206312    5.89320801083684
C        -0.90589778909451    4.38699206900721    7.52272017974287
H        -1.50231774355854    4.84513506993556    8.31095255964633
C        -0.85991058056403    2.88647978965340    7.80043470470334
H        -0.35705732865633    2.74561830205336    8.75732508661868
C        -0.16376763111140    2.04363343040653    6.72371246478682
H         0.62322490481353    2.69138008557180    6.31877442139096
C         0.60218922939041    0.82228294688372    7.31372776364610
C         1.28368919355792    0.05492319412907    6.17073737096838
H         1.75902721870850    0.74082213756940    5.47222301204838
H         0.58091736793847   -0.56958789194646    5.62742843699790
H         2.05032699235398   -0.60106236232709    6.57540586052848
C        -0.39141214104860    4.83441474208612    5.03671047241071
H        -0.49687031498219    5.75796522332307    4.46565042041878
H         0.61134650860163    4.88507251100417    5.47572555107795
C        -0.38514926048884    3.69378558058403    4.05518195754117
C        -0.69023174922179    2.31412728004458    4.26150614924761
C        -0.35689302620334    1.60778200222393    3.06674332583805
C         0.20117776520172    2.53648938901234    2.14182750872204
C         0.80626931315035    2.22550862533246    0.80584132198937
H         0.51458647186669    1.23572431603537    0.45949267819330
H         1.89570929052810    2.25491943047520    0.87684784611244
H         0.49742499765632    2.95408914092701    0.05258670976912
C        -2.26627769692127    6.14867768150349    6.24122464837940
C        -3.46612269201593    5.96715610914020    7.18278130407763
H        -4.07121925452183    5.11775165524301    6.87318001363826
H        -4.09020023476297    6.85629286288688    7.14935735862141
H        -3.17893002573421    5.82314667063065    8.22131826037550
C         0.18974772699073    3.82141803469937    2.75187817831275
C         0.86153843381159    5.04281889176756    2.20081841296868
H         0.31817055519811    5.95522789039304    2.44549422797265
H         0.94976748246453    4.98484157955799    1.11691486219271
H         1.86683015538043    5.12656001353602    2.62087324038058
C        -1.10566202822343    1.66946278601470    5.55383904607667
H        -2.13426002279103    1.93992308719918    5.80361962278877
H        -1.11350985126187    0.58895220622340    5.41978321925103
C        -0.47662837763377    0.12691102530909    2.85798678633203
H        -0.57907844226656   -0.11259006774894    1.79989981416438
H        -1.34770294362299   -0.27717764130868    3.37661834416116
H         0.41633635046938   -0.38013162350304    3.22973414936963
C         1.71957885847338    1.31155230582643    8.24634243239747
H         2.38280179550341    2.00091692978438    7.72799900480798
H         2.30890773651850    0.46339329145804    8.58575747271049
H         1.34001164242482    1.80998561241200    9.13433200135566
C        -0.31922166159788   -0.12756890361574    8.08034594684479
H        -0.67693962241643    0.32180054199659    9.00294598508915
H         0.22437313441258   -1.03227303516601    8.34277173300464
H        -1.18310149504722   -0.41252031405534    7.48469919380124
C        -2.85594161626268    6.49138609471726    4.86611274533754
H        -3.37164962090471    5.63077651122751    4.44268787536041
H        -2.11025218148910    6.84232431291365    4.15727139213634
H        -3.58488599930563    7.29001814359553    4.97424454926877
C        -1.40307023316192    7.31531057350207    6.72570764117692
H        -1.11800412840361    7.19908050325380    7.76828199294684
H        -1.96331061858791    8.24328491670559    6.64073708437858
H        -0.49661350711691    7.41424251014578    6.13297852619691
Ti       -1.97083470117139    3.11928710374024    2.49210090240701
Br       -3.94210162424814    2.81307789843358    3.80567348517598
Br       -2.47923895912663    5.21672783852502    1.46813462371402
Br       -2.69366439672934    1.75656999069445    0.65606648872547
Br        0.91506457878206    5.08140647535318    7.92578046181425
Br       -2.72088669941935    2.31516285780042    8.21496352337101

