47
CSD_code = DOCPIW | q = 0 | S = 0 | Stoichiometry = C19H23AuClN3 | MND = 2
Au       10.02524788205186    2.49023285944656    7.78713761137033
Cl       11.15327383001431    0.55669239231713    7.54505168558391
C         8.99434870968816    4.18953906453185    8.00961388660177
C         9.50165438082739    5.48900079730705    8.02251225473324
C        10.87564470487970    5.93383648882907    7.83471590484314
C        11.45709339876673    6.86690359009696    8.69073318019531
H        10.89495879366681    7.26356842246177    9.52369552628098
C        12.77126600189947    7.25549398705017    8.50645924020267
H        13.21560490176444    7.97295821284187    9.18036375803153
C        13.51704536616833    6.72110444664953    7.46943172998507
H        14.54346404427555    7.02499158792199    7.33013990679341
C        12.94626965164262    5.78906329677586    6.61794101553253
H        13.52592917194480    5.36367739407169    5.81313917967576
C        11.63442551359843    5.39443998241336    6.79738605945517
H        11.18670154624217    4.66859424804324    6.13648901524233
N         7.67261720412714    4.37888047567576    8.23625556259461
C         6.63978888365842    3.35481024354212    8.33311466170489
C         6.95470297523146    2.42653515887778    9.51001402425907
H         6.99320687472152    3.00875199132692   10.43439359820959
H         7.93171487361853    1.96178782510523    9.35867626302437
C         5.87263998106947    1.35270277229764    9.60441393219764
H         6.10683904763162    0.68741341105543   10.44132470921530
C         4.51508802522206    2.01388817207257    9.83761075408905
H         4.52977170841381    2.57841185417323   10.77265566024361
H         3.73941069915177    1.25044947861191    9.92011696630770
C         4.20209126575355    2.94639517063630    8.66880203962281
H         3.23442974674533    3.43173946311252    8.83535234130546
C         5.28369272481350    4.02281771393570    8.56582426731743
H         5.06072616383045    4.70201865216024    7.74095575678732
H         5.31552073282224    4.61261206741047    9.48358034592783
C         4.15405014808923    2.14020546983349    7.37215469897708
H         3.37635156912336    1.37730161417949    7.43907513577185
H         3.90871624802161    2.79542941056939    6.53326331332705
C         5.51189963573344    1.47932351318852    7.14015064322351
H         5.48738991914638    0.90477892660822    6.20890497051208
C         5.84190134323454    0.54881449715019    8.30583491090323
H         5.09014968328993   -0.23956153293340    8.37534708645913
H         6.81166065048620    0.07653912392737    8.13972892232007
C         6.59153496181632    2.55411606722169    7.02856928598872
H         7.56350843218162    2.08989719194664    6.84710780783868
H         6.37297030644091    3.22649488278965    6.19485876382750
N         7.34048940291008    5.63966628919625    8.37579572459906
N         8.45117731324511    6.31660005824634    8.25134067971181
C         8.41870369933811    7.74895083974666    8.31757682336098
H         7.45499815446280    8.08854560084559    7.94079537748032
H         9.22672947780757    8.15984014188558    7.71440801469894
H         8.52830025046955    8.08834668483449    9.34918700364344

