41
CSD_code = DODBII | q = 0 | S = 0 | Stoichiometry = C13H20Cl2N4OPd | MND = 4
Pd       -2.26011798041437    8.14560597952530   17.54503348019259
N        -0.51611962557393    8.50225002268707   16.57983500344276
N        -2.25645425741028    6.35613500698808   16.59602047453771
C        -2.52904749242397    8.33193324307577   13.85003078411055
H        -3.27724700184714    8.93356967251464   13.30619287843567
N        -0.50054865768529    8.82940349234248   15.28303762146421
C        -2.32739062195973    5.02060385094143   14.83716452475012
C        -1.75017059911349    5.19780179542237   16.97667643745030
C         0.71952967666465    8.23792960616492   16.96027896261244
C        -3.34749649515873    7.31908386495029   14.68232948394633
H        -3.87809040636978    7.86333257169412   15.48721860466376
H        -4.08182823596201    6.86106190779178   14.01469745730200
C        -1.69671845563543    9.34877259713211   14.67315243688306
H        -1.41450085048354   10.17717338888035   14.01485357442405
H        -2.32766484493141    9.74947763374318   15.49066673543212
C         0.77078747786706    8.79723357146485   14.80931387946224
C         1.57445398667530    8.40889391111572   15.86088250763925
H         2.63662830132803    8.27724392349273   15.84137058315467
C         1.00621226429831    7.87103171455773   18.37130088415973
H         0.07216827852210    7.94702964128094   18.94744678437146
H         1.73853393916895    8.55483590177335   18.79648693185540
H         1.40128606295140    6.85883978110439   18.44221286311112
Cl       -4.24335712216891    7.67605666553025   18.44972404226608
Cl       -2.21158518204667   10.20084299378927   18.41598520991667
O        -1.73306041114803    7.61104131478675   12.93572535676743
H        -1.32629402946194    8.22535497026717   12.31515065447605
C        -1.76994983338894    4.31671123752933   15.88439976975746
H        -1.43352222725054    3.30054815941145   15.86920149007579
C        -1.31094203889819    4.99920827872895   18.38263186178913
H        -0.24029648457050    4.80824677885632   18.43821249315823
H        -1.83262709656499    4.15157518102505   18.82305790277752
H        -1.55803820202954    5.90475372211499   18.95584907830735
C        -2.63282322953394    4.59701687638473   13.44934417732174
H        -3.71010275593394    4.50254184829582   13.30700100263019
H        -2.17489414145266    3.63243764141211   13.25190718876457
H        -2.25349773159102    5.32892411265031   12.73980416376740
C         1.15118333864311    9.12091586246121   13.41055324949405
H         2.22163136303831    9.30125780262831   13.36520633086502
H         0.63593334357014   10.01218806776067   13.05403844726471
H         0.92001752685361    8.28861377183989   12.74536818060611
N        -2.59677954858549    6.26292163586891   15.30563650659156

