49
CSD_code = DOFLIV | q = 0 | S = 0 | Stoichiometry = C19H21AuClN3O4 | MND = 2
Au        0.88692213771185    4.46441703785619    4.03176497353014
Cl       -0.67135815275726    5.82512748086276    3.12648967689107
C         2.13839857577447    3.12634002195091    4.83383678615179
C         3.52574924722308    3.17779981917683    4.96163664880453
C         4.44721506898122    4.19101960060707    4.47235657634741
C         4.29362967750497    4.69478086922858    3.17816560401184
H         3.49989477951255    4.31565059232717    2.55411703511441
C         5.14651298642077    5.65950195181322    2.69835908809730
H         5.03632550837494    6.05177992867033    1.70047456222984
C         6.17635619373112    6.16388694493446    3.49914542070225
O         6.96126896998564    7.10908253161866    2.92850747608084
C         7.99452461434473    7.68689400546756    3.69033096089802
H         7.60335991504416    8.19493895728474    4.57725564805376
H         8.46752988818318    8.41800360916408    3.03703768522406
H         8.73617169466023    6.94072771794853    3.99365108837994
C         6.32451257816419    5.67625952385313    4.79410175923751
H         7.09632245682054    6.05338368428990    5.44626800839259
C         5.46782201960586    4.69949955749339    5.26865061976148
H         5.58162058153380    4.36153924866755    6.28820703958027
N         1.81757092293919    1.96722994344622    5.46892219092097
C         0.53803171408144    1.42708997248529    5.68039000967600
C        -0.48629132367138    1.65577700823113    4.77885416348827
H        -0.28474213620770    2.21644629238933    3.88361242651884
C        -1.76789293098732    1.17176433922548    5.01928604539257
O        -2.80144668712961    1.40844561518130    4.16600741819453
C        -2.61952646836133    2.33451330073210    3.11179204968865
H        -2.25788267502138    3.30197425170710    3.46927756429919
H        -3.60645748035944    2.46050101193596    2.67023533040898
H        -1.93484651714700    1.94647687804853    2.35213734456262
C        -2.00866702758147    0.40041380766973    6.16975184619369
O        -3.17977886919694   -0.16479452889642    6.55253461194086
C        -4.40457072444285    0.21779078284510    5.96444846552340
H        -4.55661164181115    1.29767533683848    6.01646202395398
H        -5.16804261404103   -0.28611733634299    6.55686600548833
H        -4.47437845778032   -0.10649941034050    4.92471587006836
C        -0.93538064249846    0.13010715719204    7.04964830858456
O        -1.26151233698022   -0.63884985665444    8.12056470904875
C        -0.25470686160199   -0.95109946614768    9.05131278692774
H         0.56577090317497   -1.50763643312238    8.58654077650212
H        -0.73533321641078   -1.57731143951205    9.80101678071173
H         0.14273974030354   -0.05176536779662    9.53339274842442
C         0.32552698810401    0.64817436065210    6.81262170186686
H         1.14617522659467    0.47603211676330    7.48721205041159
N         2.86243216584885    1.33315190188211    5.96025578721182
N         3.89915451399731    2.07001269328402    5.65238948387880
C         5.21280052272598    1.62364517441476    6.01273152240390
H         5.48010007464156    1.97633807772492    7.01067948158556
H         5.93477976437216    2.00100834351906    5.29023060893981
H         5.21510733362690    0.53457238943587    6.01645322970357

