48
CSD_code = DOMHUJ | q = 0 | S = 0 | Stoichiometry = C19H24Cl2N2Ti | MND = 4
Ti        2.26700345444662    4.24380867841869    4.84929875238502
Cl        0.60959660364231    5.40673311591441    4.00947577069352
Cl        3.59448322315954    5.86983688834101    5.44143350084789
N         1.58605284884838    3.12085176671006    6.08445185648490
N         2.78491939746836    3.01244276880381    3.63544570898228
C         1.04198408368833    1.81598834531507    5.77790969229552
H         1.73405111616509    1.02796361101504    6.13116759207294
H         0.08325134287968    1.66109551229152    6.29343725525812
C         0.83426739117858    1.66160070268428    4.26545921915230
H         0.18641572643267    2.47728169339067    3.91599346302161
H         0.34352385440461    0.70537193969648    4.06773079958799
C         2.15682088260482    1.71681560858691    3.48834359922830
H         1.96445237417820    1.49434786825864    2.42913214916880
H         2.83148381290823    0.92709887214797    3.87013305931660
C         1.41572691965816    3.64092720533536    7.38043800388127
C         0.15548179895387    4.07426117455876    7.83340195812758
C         0.04166396514458    4.58954636106529    9.11699225006637
H        -0.92505607352796    4.92730311425586    9.46236921865125
C         1.14173564074456    4.68672118526385    9.94973961769252
H         1.03311285432221    5.09072757559294   10.94497600241410
C         2.38232954113038    4.27506659532715    9.49884459665317
H         3.24609406755599    4.35761311258674   10.14275994796560
C         2.53637497484376    3.75085895425947    8.22337418993802
C        -1.05060644955293    4.02035630101615    6.93950803382216
H        -0.76063000184166    4.15336199215887    5.89423536842884
H        -1.56966692034462    3.06553951271750    7.03843510663327
H        -1.75087184045529    4.80661267357448    7.21355305643394
C         3.89216817635110    3.31322817059546    7.74562918359424
H         4.44762848195860    2.84513546542300    8.55658697287855
H         3.80027768747821    2.61149925848897    6.91149631590813
H         4.45838725762169    4.18388804484600    7.40555803473854
C         3.66886160102459    3.45796905119215    2.63537444834446
C         3.20920643424421    3.82369990225048    1.35649041033048
C         4.12550507888523    4.27389874244992    0.41555941912638
H         3.77142271821890    4.56131855666533   -0.56421847888339
C         5.47203445537123    4.36950014647026    0.71454704202514
H         6.16821821920322    4.72307210091874   -0.03098106544814
C         5.92211544949247    4.01777412918798    1.97430697510679
H         6.97310676363615    4.09519101257341    2.21288938684574
C         5.03893117781674    3.55978445099877    2.94027573612140
C         1.74958260297591    3.76624710966600    1.00574145366818
H         1.48233426565902    2.78860265609064    0.60107080342504
H         1.13289579891902    3.96018479512042    1.88662624470869
H         1.52157754653377    4.51107211631144    0.24615405340215
C         5.53236722838122    3.18037212805318    4.30714793865707
H         6.58388069390801    2.90403210991393    4.26862591860019
H         4.95439073581378    2.34468322225576    4.70815186652685
H         5.42601303787137    4.03191370123755    4.98522757112569

