66
CSD_code = DOMROM | q = 0 | S = 0 | Stoichiometry = C24H35ClN4OPt | MND = 4
Pt        9.88500268814568    4.99127196984565    4.85142059369409
Cl       10.64945436964731    5.62392194506898    2.79705256418880
O         7.34021721841671    3.05755706323536    5.51470620503192
N         9.19915313759611    4.49968977331579    6.81011264700029
N        10.75751753968783    6.60871924119161    5.62187091950079
N         8.93355976568568    7.88225978885803    6.32630599169280
N         8.96995806578363    3.42867232407197    3.99058849907136
C         8.65947837207675    5.68234195712748    7.48382245148984
C         8.09829360072191    6.69255752102533    6.46939294854086
C        10.26223986275622    7.71447419938586    6.07755656201566
C         7.87487531415655    2.82592883512186    4.40736184156240
C         7.25407656145926    1.80084528376078    3.50961527224191
C         8.02131010553796    0.96559673469005    2.70473548637179
C         7.40826441661920    0.01884071700238    1.90387011622963
C         6.02832743549466   -0.09766047401872    1.89363993314213
C         5.25988688109822    0.72585717031077    2.69993925247801
C         5.87045748012696    1.66424420069471    3.51044355690852
C        11.22398668780668    8.74737078310198    6.52935019106402
C        11.12578809923635    9.25449362676239    7.82280696729687
C        12.08409897408480   10.12891569986399    8.30084702302684
C        13.14581483500656   10.50581726241789    7.49458743042850
C        13.25472610826995    9.99572776837331    6.21088840491120
C        12.30640396586375    9.11116309804396    5.73222795917454
C        10.04618194956115    3.61618566625503    7.63234088690978
C        10.33555861722137    2.36808908527928    6.79667695033296
C         9.31576200624445    3.20203683858557    8.91535587474326
C        11.37598975812114    4.29881320728383    7.96406326803114
C         8.20062255147227    9.10663050792664    5.92658747856941
C         7.45837909870983    9.67438104247814    7.14158266143585
C         9.11883308017034   10.19329979515108    5.36196455193231
C         7.21159378000466    8.75234705044818    4.80137830540135
H         8.38601553466480    3.92536034845663    6.46636384353331
H        11.77259769272750    6.62813314769981    5.53988125076272
H         9.26000464196352    3.18291716620630    3.04850779468411
H         7.85271468854464    5.38959509448584    8.16609220384169
H         9.44076409259100    6.16796570927957    8.07528449985113
H         7.12605167417545    7.03014380620396    6.82181984827180
H         7.94985491023279    6.17452045718635    5.50369657617778
H         9.09997578426296    1.03798792590895    2.71798255851956
H         8.01014688456477   -0.63169716082495    1.28527104091076
H         5.55299559243344   -0.83450657303609    1.26225100704053
H         4.18337394495566    0.63243368455239    2.69858030092309
H         5.28801113155339    2.30557190628362    4.15533509068419
H        10.30111711687389    8.95027481907443    8.45075124241469
H        12.00388512504198   10.51580224663078    9.30591172812553
H        13.88983353718969   11.19308853847200    7.86783265377697
H        14.08296989044431   10.28563961130728    5.58229630948138
H        12.38610038281617    8.71790219997412    4.72868367064472
H        11.00841200179323    1.69962856087330    7.32716794480350
H        10.80098441064984    2.65597764633296    5.85119989901361
H         9.41320598519690    1.83537694052552    6.58057061812325
H         9.87605853286134    2.42091391482791    9.42232825256330
H         8.33014357538899    2.81199951264342    8.67158085886506
H         9.20676311937335    4.03765643719991    9.60252391772825
H        11.24144902671576    5.18504787996911    8.57985295461917
H        11.87939233809764    4.58193619506282    7.04077101801573
H        12.01674140932249    3.60954675032389    8.50742003702643
H         8.16649331800491    9.98257478718970    7.90669017134273
H         6.77672447353355    8.94805164817312    7.57590860285954
H         6.87849000613215   10.54308080627669    6.84215343022226
H         8.50071611227074   10.99790156793959    4.97096695597203
H         9.72070416533720    9.80513217817638    4.54442663280154
H         9.77101146051001   10.61901403453531    6.11720049227654
H         6.38469265717864    8.13961286301417    5.14625181334045
H         7.73042322332123    8.22438139999893    4.00431433238364
H         6.79256923250306    9.66514426641296    4.38673765398625

