62
CSD_code = DOMSOP | q = 0 | S = 0 | Stoichiometry = C30H25ClN3PPdS | MND = 4
Pd       21.37539697790874   -1.50332789617149    9.39570508508884
Cl       23.44290494696385   -1.08846270958655   10.31579197845621
S        19.37824450334559   -2.01612589632729    8.35584849857969
P        21.92127178479524    0.27180740986129    8.15366218672129
N        19.85304601213645   -3.84392775417189   10.28734073162168
N        18.01457685849850   -4.17653648717734    8.98388395900613
H        17.91767859155855   -5.09272873049088    9.38666681220999
H        17.54327808166802   -3.97458781691798    8.11983911008848
N        20.92466181428026   -3.08444652898770   10.60243702427340
C        20.90221529744404    0.82957946190671    6.74985406674605
C        23.53656508541994   -0.06214653778643    7.39984863319159
C        22.42071795327771   -4.90059736762920   13.44094403434547
C        21.33633528595657   -4.37734012534884   12.66590319081167
C        21.94517558960965    1.77622349059037    9.16635733036953
C        23.68981676854858   -1.38890930741488    6.99439284357733
H        22.86939977193241   -2.09635470255695    7.17264913633377
C        22.13202150878432   -5.83233641722266   14.47460862932261
C        21.60336926946682   -3.35812568392901   11.66947177280571
H        22.47963286947199   -2.73617999532194   11.82026391481734
C        23.77097579673793   -4.56515405544318   13.20920936864814
H        24.03068254112640   -3.88776407544973   12.41116735466151
C        21.52037670943749    1.65430783584208   10.48687046619190
H        21.23409540630906    0.66697919987298   10.86936832276580
C        19.58736127951393    1.18306635792650    7.04241880507044
H        19.23809592300266    1.10521643196444    8.06578630551470
C        21.36248719564515    0.89611532659899    5.44148285363288
H        22.38024175439989    0.61303008325404    5.21028477612748
C        19.11829780059586   -3.45734062053904    9.29168474571918
C        20.04873709269627   -4.80754422045299   12.92775106786848
H        19.23165014314360   -4.40781624313334   12.34898012862757
C        24.77274305819474   -5.09709912484344   13.97554290338538
H        25.79970706355439   -4.82414025557138   13.78212534249536
C        20.79803596570333   -6.22569077449547   14.70979972171665
H        20.59809808013529   -6.93281567540310   15.50240144076245
C        22.27083710627353    3.02726752064555    8.65231965975548
H        22.54212587791147    3.12844758647859    7.61026595447106
C        24.57739696746749    0.83982638270927    7.23859148903011
H        24.47620337021769    1.85671400603436    7.58745629254225
C        18.74332223141477    1.60848679242391    6.03644323020236
H        17.72302730765465    1.87928917539603    6.26446430772891
C        24.86910425668392   -1.80182136663273    6.40740033686298
H        24.99170395679113   -2.82882428680298    6.09640220312403
C        19.78040924655297   -5.72483480922824   13.94645838479122
H        18.75938140929259   -6.02762008579167   14.12826798213126
C        22.22409861336858    4.13820616719030    9.47456394855667
H        22.48711055654494    5.10954075839615    9.08160465963560
C        23.18724330266793   -6.36016568891888   15.24804921538348
H        22.94762707731772   -7.06367778161273   16.03303118434001
C        19.20661300184047    1.67999555563739    4.73103759132920
H        18.54642273757090    2.00890562546460    3.94205250261462
C        20.51147547558055    1.32373916358705    4.43630964738174
H        20.86935670292840    1.37576124590645    3.41823691227716
C        21.46905661400500    2.77057881772814   11.30156951552465
H        21.14664957197518    2.67708596748109   12.32791907651085
C        25.90425306017879   -0.89427719456865    6.23404099783425
H        26.83141580918359   -1.21643039662397    5.78349144858580
C        21.83264325165421    4.00930359290268   10.79804724873210
H        21.80038200314057    4.88042383243479   11.43564800837644
C        24.48234486396616   -5.99849690230971   15.00823928054705
H        25.28577453172900   -6.40670713864148   15.60380271001016
C        25.76051465412060    0.41665269546469    6.65488888037228
H        26.57681166072261    1.11410416982545    6.53575478976948

