55
CSD_code = DOTXER | q = 0 | S = 0 | Stoichiometry = C22H22ClN4O5Re | MND = 6
Re       10.74905824365421    9.56754470698347    4.97998312454125
Cl       11.80564363045660   10.40082044592264    6.81128128653451
O        11.91873092390706    9.87808680720179    3.82085093129299
N        12.98456540316276    7.38554692621187    5.67568039424475
N        11.68469553488039    7.62709968975373    5.50001646010978
C        11.01089301029920    6.52368368047305    5.86023653236998
C        11.93696864272426    5.54691553585843    6.26487830460738
H        11.72680209864059    4.56301090797146    6.62762804088691
C        13.17057247423201    6.14260388728199    6.13682196054600
H        14.14810438859553    5.75611215383521    6.34408358540365
C        13.99341971218631    8.37945035039302    5.44490703154414
H        14.96674562958497    7.89738939054949    5.39875743100813
H        13.96660631443550    9.12093396071144    6.24832809771199
H        13.78309758230395    8.90579629804636    4.51245823987717
O         9.35433151634500    8.79679600619954    5.98710957746890
C         8.79043791217056    7.61872156441186    5.99705422108227
C         9.56048813214414    6.43753117132713    5.87644574986098
C         8.92684119862211    5.19425169045654    5.85022745744257
H         9.53902049336220    4.31283299939822    5.74445866109798
C         7.54806341836028    5.09784083910339    5.93723669167075
C         6.78882146155843    6.26563396643092    6.07236748907381
H         5.71675927820995    6.17404754990128    6.14272052305681
C         7.39570525959300    7.49576910223029    6.11114349645090
H         6.81292570248274    8.39974563665232    6.20578705485464
O         6.84108520780128    3.93120638881509    5.90091794171993
C         7.54825368834085    2.72032366659587    5.80977826493790
H         8.12179757141683    2.65647497767778    4.87885620628844
H         6.79271233342094    1.93628219641493    5.81918373044674
H         8.22186074032407    2.58237342908497    6.66192280363411
N         9.74360821970299    7.95334730713938    2.36341369249973
N         9.47654538588906    8.86426134638304    3.30261753503191
C         8.23927247350618    9.31687795396261    3.10157766549464
C         7.69899051005789    8.65045850369405    1.98093940425896
H         6.73601806766512    8.79455005883317    1.53980818756955
C         8.68810081709068    7.80484708490937    1.54689590509141
H         8.70696708138196    7.12312154722698    0.72014153657727
C        11.01930295977217    7.30855710137846    2.26756509672235
H        11.16622460766118    6.95352835943946    1.24930729734768
H        11.08133395915347    6.46511923987619    2.95930875289298
H        11.79325099473983    8.03618280633900    2.52263707681293
O         9.61557193579141   11.23916652789237    4.95608583805722
C         8.33652829822404   11.26276627088857    4.70708608331884
C         7.60610005651397   10.35544048975474    3.89164529101301
C         6.21979234193066   10.48591546692652    3.80246497700975
H         5.64783647245962    9.78045146240632    3.22147799071898
C         5.52430747582756   11.49060849309437    4.45524951432383
C         6.23909980353525   12.41642744311008    5.21412136750181
H         5.74158493129158   13.22443661079837    5.72733636105959
C         7.60362418329966   12.29441999135708    5.32821749802606
H         8.16433670967403   12.99447001283733    5.92879876271601
O         4.16452548867495   11.48677123811295    4.28753469096252
C         3.41488581635327   12.48599692893724    4.93249161668525
H         3.52851107756019   12.43759101551711    6.02090471076568
H         2.37593626845061   12.28912505285129    4.67160194504360
H         3.69073656057714   13.48693576044070    4.58324991273348

