37
CSD_code = DUBCAF | q = 0 | S = 0 | Stoichiometry = C18H13BrClNO2Os | MND = 9
Os       -0.12576729633165    2.01087423759627    2.38798626506222
Cl       -0.61736202281196    1.89824853069447    0.16098250603772
N        -0.26691997032926    3.92404483095163    2.20138956720367
C         0.63232485825685    4.71807876539936    1.60500810997909
C         0.45652399036035    6.06714813583421    1.38423671565501
H         1.22811596296315    6.63405772214216    0.88891881112497
C        -0.72731425639817    6.65637801898359    1.81059996730707
H        -0.90156687212178    7.70745578086406    1.64775735314357
C        -1.67012702668077    5.85976889712865    2.44718128261687
H        -2.60916622003400    6.24627847526092    2.80990525802239
C        -1.41402562206395    4.51437393217733    2.61913227951588
Br        2.23398546221470    3.83903632295076    1.09488647815530
C        -2.38118109926709    3.54128093757434    3.28872051879933
O        -3.39996807977558    3.93761493925071    3.81143564292421
O        -1.96853806310964    2.32707405295120    3.24634608418421
C         0.74441049584737   -0.09784081434231    2.27917877979359
H         0.42410533856628   -0.69720200249508    1.43036970834148
C         2.09105630867633    0.31834521549759    2.34859585908989
H         2.74450547184315    0.14440276433920    1.50504225857400
C         2.57638703425296    0.92755013381214    3.49110660041830
H         3.60172613597081    1.26050222413723    3.53815498728202
C         1.73319069757935    1.09819393382443    4.59763028427643
H         2.11630089581338    1.57240307643621    5.48997965045215
C         0.44014918022364    0.60356942035835    4.58475505565747
H        -0.17401287675306    0.66844594992769    5.47284630632545
C        -0.09286533223315   -0.01901135152632    3.42784894549511
C        -1.38238832285326   -0.73570633392277    3.47888803398279
C        -1.73191597124850   -1.46479308644798    4.61332546208617
H        -1.05222498512448   -1.51444376055829    5.45218053377887
C        -2.93311669651099   -2.14717823902462    4.66313684986000
H        -3.19200399226119   -2.71061045899048    5.54749482486524
C        -3.80218141780178   -2.10588947205186    3.58610800173418
H        -4.74385574725257   -2.63222286048453    3.63099278311951
C        -3.46097122485760   -1.38484557260138    2.45378490417415
H        -4.13781145356666   -1.34379149847078    1.61401110000525
C        -2.25737356735023   -0.70877392999946    2.39419688745918
H        -2.01152371583607   -0.12821691718549    1.51648534349792

