42
CSD_code = DUBLAP | q = 0 | S = 0 | Stoichiometry = C19H19ClN2Pd | MND = 4
Pd        2.89275401907068    7.50868561309138    2.10285498972480
Cl        0.82615766278460    6.65549487132020    1.38220831352928
N         3.91206867985272    5.81902859589398    1.89500320213017
C         3.38519162515138    4.67725588093368    1.46703866296067
H         2.32903654445444    4.69681918020768    1.21884139773050
C         4.12666983775644    3.51532751071406    1.33820677710569
H         3.65637809187185    2.61132681855990    0.98656212284116
C         5.47286960770681    3.54637190737691    1.66982378574907
H         6.08348933303842    2.65989870263329    1.58263494559768
C         6.02196115293734    4.73353350993200    2.11465273734247
H         7.06600678619129    4.78307986388485    2.37871788997908
C         5.22222103086884    5.87137475703536    2.22284973554322
C         5.67716178191638    7.18102280626159    2.67777253878800
C         6.98771528717115    7.46268021929627    3.06309756718952
H         7.74658088500519    6.69395102433139    3.03916104417775
C         7.32532174725445    8.73454867709171    3.48049576219241
H         8.34012027594347    8.95409611322017    3.77934494472994
C         6.35942082726806    9.72807056215426    3.51555069586527
H         6.62512715278576   10.72398267782176    3.84256711793046
C         5.05546023246339    9.45130132995413    3.13322766389123
H         4.32309955837688   10.25162850180651    3.17147328330694
C         4.68021439299198    8.17995599484373    2.70645133532396
N         1.93483417595473    9.21520750958652    2.33258950547304
C         1.79631878107586   10.03255676911704    1.28625014666948
C         0.99074824790215   11.15639722165185    1.36487223772522
H         0.88819623063008   11.80559511309667    0.50894693451485
C         0.30398890636021   11.43788823352781    2.54231978424011
C         0.45840051093102   10.55658083620642    3.60566607882535
H        -0.06594411171115   10.72507248544215    4.53370083925668
C         1.27844665053766    9.44661445728882    3.47027136941597
C         2.53873140337025    9.64135556920530    0.04634823420139
H         2.38516260390730   10.36056987720253   -0.75394739554333
H         2.17919337929241    8.65474684952354   -0.28286285494067
H         3.61203984606205    9.56003514080303    0.26633952166508
C        -0.56151034322841   12.65127817272911    2.65049878291671
H         0.05954973706831   13.54460121800659    2.71751288152280
H        -1.19235796854309   12.60331795151598    3.53390231853376
H        -1.19123565266350   12.74991342154867    1.76879557071402
C         1.46816082747336    8.43260389379187    4.55521695103277
H         0.92044850063021    8.70294101850022    5.45428635835575
H         2.53714967409689    8.33636385004445    4.79080824309441
H         1.10665208799143    7.45832529284985    4.19334797869983

