39
CSD_code = DUCBOT | q = 0 | S = 0 | Stoichiometry = C16H16Cl2N2O2Zn | MND = 4
Zn      -10.01355414341533    1.86034663239754    7.27135645454375
Cl       -9.57679051131625   -0.16635435293292    6.54560345375802
O       -12.83693465272724    1.86005951729618    5.99189966610196
O        -7.57058233211429    1.86007680895948    9.17414547699524
N       -12.02499191661592    1.86013182481420    8.03129683258778
N        -9.75430006397904    1.86013868015353    9.40297436005056
C       -13.11015963996280    1.86008881757982    7.28411980559802
C       -14.39796553648485    1.86007405861490    7.87431870775671
H       -15.28113172592145    1.86004870918583    7.25637902035383
C       -14.50281843972349    1.86009846938638    9.23997396541719
H       -15.47511449902284    1.86008939888892    9.71113953277422
C       -13.34461378662305    1.86012627445283   10.04431937157100
C       -12.11377443090331    1.86014052598990    9.36239163234769
C       -10.89140321892657    1.86014536116038   10.10079281186918
C       -10.92272017390445    1.86013427168026   11.50756241346137
C        -9.67209547807324    1.86011380567481   12.15877483438910
H        -9.63644928963163    1.86010467986415   13.23861913395795
C        -8.51192805944812    1.86009266315313   11.43077654285734
H        -7.55422999915252    1.86006951186066   11.92536067859099
C        -8.58818246100674    1.86010180550299   10.01630018854831
C       -13.34494872730866    1.86013626447384   11.46664023029247
H       -14.29597275515547    1.86013234888144   11.97809802128948
C       -12.18167383941179    1.86013990412802   12.16944861329604
H       -12.19158055547468    1.86013726987107   13.24923444465694
C       -13.86861118064321    1.86001475780921    5.01439041924306
H       -14.49341096371561    2.75471969274610    5.13458580001126
C       -13.18812546377642    1.85999557315105    3.65622436329304
H       -13.93261995207503    1.85997842655615    2.86545688549880
H       -12.55911338141110    0.97939299790972    3.56227981642234
C        -6.22642224745102    1.86001219118259    9.63613181260331
H        -6.04404030275682    0.96522455553945   10.24550613261662
C        -5.33604023273293    1.85998622160408    8.40527626949719
H        -4.29080042855787    1.85995122073649    8.70101315250622
H        -5.54260605344216    2.74073401827525    7.80393518764974
Cl       -9.57725607609953    3.88749175837672    6.54614613323251
H       -14.49338136425017    0.96529275331654    5.13462384928518
H       -12.55912369797504    2.74060374704678    3.56225216341151
H        -6.04396906032482    2.75477045695941   10.24553137705807
H        -5.54266335848474    0.97925837775309    7.80392044460597

