60
CSD_code = DUGCOZ | q = 0 | S = 0 | Stoichiometry = C23H30Cl3N2PPt | MND = 4
C        -0.92241230932691   10.97963971123217    5.99339827373781
C        -1.43874906141623    8.86625862092489    7.17407365540731
H        -2.14715176989642    8.18485988207507    6.68763671391305
H        -0.43417392573899    8.56977564830882    6.85672971956156
C        -1.58003363230224    8.74794971995978    8.68784457384232
H        -0.85169021677886    9.39255504253336    9.18178732398899
H        -1.37295972717527    7.71858482725469    8.97891534556951
C        -2.99009497169339    9.15191114366109    9.10172706822405
H        -3.71275015676210    8.44387232476290    8.69190211631172
H        -3.08493017552779    9.14117138318853   10.18798071026075
C        -3.27635822300781   10.54619430206771    8.56139411579526
H        -2.58624391370151   11.25992472633444    9.01682203780529
H        -4.29414168394219   10.85272756912310    8.80549426707803
C        -3.10598541355513   10.58470040536281    7.03802787905302
H        -3.81877321152445    9.89623498585790    6.57284660944977
H        -3.30759860861108   11.59685873372833    6.69513285655364
C        -0.80513094403068   13.19721546880174    4.96412010897228
H         0.10529080566722   13.25785549519277    5.56143580813155
H        -1.51140956585144   13.95335452373036    5.33732195610310
C        -0.50070624706939   13.49394847381264    3.49769908289310
H         0.27690155771429   12.81507285441359    3.14953555895936
H        -0.12327246530228   14.51435987229310    3.41677046650002
C        -1.74964958002656   13.29960017119209    2.64784363042459
H        -1.50917799060899   13.43918371237915    1.59391617756029
H        -2.50812496782797   14.03814797516621    2.92090015635733
C        -2.28447698632725   11.89538860285702    2.88818111817859
H        -3.18591883538632   11.71546557473477    2.30281859041825
H        -1.54247512181479   11.14938056555698    2.60272583126611
C        -2.62145974504634   11.69362936306210    4.36445047004179
H        -3.40703964179452   12.40051611724792    4.65867283432027
H        -2.95219840380912   10.66475958514789    4.49117707603616
C         1.20829771484416   10.51204729409410    7.71856834023488
C         0.67021469997886   11.56925368306968    8.45207081571469
H         0.04587786647357   12.30502030114066    7.95922452607045
C         0.92842060297872   11.67788458440580    9.80594987479119
H         0.51290729284989   12.50176827255255   10.36833022456189
C         1.71950984009795   10.73192861038334   10.43951241431640
H         1.91876007684315   10.81916801073402   11.49706906396350
C         2.25126178977378    9.67838009138071    9.71504686256913
H         2.86568587489295    8.93976088266949   10.20675740832064
C         1.99827877803151    9.56631268975940    8.35849492330552
H         2.41891664808129    8.75492345433739    7.78342823851682
C         1.90783925559072   11.69701632913304    5.20635719170322
C         2.57520432670228   12.66690999189039    5.94755570205702
H         2.41454097899796   12.74861350350846    7.01309601862787
C         3.46693654177016   13.51841372058214    5.31921077903608
H         3.98767681518544   14.26629552747941    5.89885910128154
C         3.70966992837631   13.40106425193663    3.96055529316829
H         4.41851952681920   14.05935771373792    3.48127538066267
C         3.06259895371921   12.42321129294474    3.22170412453993
H         3.26735516834386   12.31437252007707    2.16737725619001
C         2.16696189060301   11.57297505939742    3.84208196170272
H         1.68492452177895   10.77150370495001    3.28420771290560
N        -1.75017421800309   10.19964275779368    6.69686626449101
N        -1.42196237413527   11.90176923063929    5.16446945689607
P         0.84929442956084   10.40903325649080    5.93272194088151
Cl       -1.35128587080584    8.61684553444006    3.89037060468931
Cl        1.27269890533190    6.83465756229143    3.21984299884923
Cl        3.05905032031068    8.77755824702646    5.35937281000953
Pt        0.85661484731486    8.60261453907135    4.56254057712751

