31
CSD_code = DUSHII | q = 0 | S = 0 | Stoichiometry = C8H16Cl2N2O2Pt | MND = 6
Pt        4.46193239861196    0.00025321037613   10.88768820406864
Cl        6.79659973780474   -0.01892500136380   10.91097121792952
C         4.42881570499130    1.55832441977146    9.56950286791795
C         4.02041244151933    4.04071789218209   12.40331916795630
C         4.20956981824517    2.74969572548013   11.65498613777318
C         3.93542051825492    3.97907254915355    9.55903069413012
O         4.40917548281286    1.70208046377890   12.28419961728713
N         4.15063339771942    2.77160773739973   10.32396565014737
H         3.64157821129659    1.43043193171111    8.81514944689790
H         5.39988887613116    1.66748661711291    9.06389234920145
H         3.69818696400916    3.70411662823798    8.53359940685002
H         4.83025426875544    4.60735300721407    9.55233177984124
H         3.10190414102943    4.55180143981127    9.96433220550537
H         4.71979974713050    4.79635626387005   12.05368731174734
H         4.18497323745831    3.85239405430321   13.46059887245651
H         3.00519862140591    4.40769903535996   12.26449180991806
Cl        2.12712125524832    0.01746519452545   10.91111494190714
C         4.49517630670559   -1.55815073848371    9.56966274909336
O         4.51473825023487   -1.70193342945028   12.28406235318498
N         4.77342789846681   -2.77152375510161   10.32395572551723
H         5.28234933056592   -1.43032066646743    8.81523069226367
H         3.52412140096105   -1.66743152624744    9.06403605593638
C         4.71448724539257   -2.74959286561006   11.65495132009597
C         4.98861205802066   -3.97901030674291    9.55901461028638
C         4.90365098900985   -4.04060995990669   12.40331251907721
H         5.22590365702989   -3.70406248294542    8.53360232810974
H         4.09376172933702   -4.60727082475481    9.55224931586754
H         5.82206918136609   -4.55181921053411    9.96432910980265
H         4.20451650198566   -4.79635031972253   12.05361883230315
H         4.73887404638897   -3.85237750772891   13.46048726700301
H         5.91884658211001   -4.40747757522771   12.26472543992382

