17
CSD_code = ECIHOO | q = 0 | S = 0 | Stoichiometry = C5H8AuClN2 | MND = 2
Au       -3.57690460714335    5.37541236834487    6.34382255069603
Cl       -3.46192498505806    3.80381813818197    4.74647128060178
C        -3.67873740825668    6.78260339193313    7.77063904703532
N        -2.80504145483084    6.98775542168587    8.77246069477790
C        -1.61800815074818    6.21758007366140    9.01299959023240
C        -3.20384609430070    8.04494038816874    9.54377050717156
C        -4.35683856297558    8.50818242610302    9.00577675406855
N        -4.63028140652968    7.72120484467947    7.92060119965337
C        -5.77740856878676    7.88704321119257    7.07396722875248
H        -1.55204202439601    5.43518628749149    8.25805456884287
H        -1.65674643295797    5.76125742863359   10.00344901792493
H        -0.73364951430054    6.85391228092022    8.95046645721543
H        -2.64779934139214    8.37653322129305   10.39606421546870
H        -4.99033137424732    9.31817257147455    9.30255049131137
H        -5.76871843430628    8.87590872836868    6.61267391610437
H        -6.69538056046724    7.77455057598121    7.65309366426613
H        -5.74764107930279    7.12643864188603    6.29493881587680

