61
CSD_code = ECIJIJ | q = 1 | S = 0 | Stoichiometry = C19H31ClN5NiO4(1+) | MND = 6
Ni        1.54936113560831   -2.56075036247427   11.67552144686311
Cl       -0.19271964918593   -2.27541096930754   10.50529685533519
O         3.56206412896781    0.37903253002099    8.01687440057954
O         1.47821852448648   -7.12313112205406    9.36202436500168
O         0.52777699649906   -1.97626534820847   13.31944717306645
H         0.29895791300642   -1.04072701091611   13.21939387453623
H        -0.31201983909780   -2.45898905490800   13.31725704116316
O         3.37913255084482   -2.88829153426044   12.83848733223631
H         3.22723305759982   -3.56857167867337   13.50282313007167
H         3.65046423308516   -2.08501996128803   13.29415217181350
N         2.42868855800809   -3.07802002340646   10.17445242365681
N         2.48670598012051   -0.56932396654370   11.13382691905589
N         3.07395646209967    0.30514090440239    9.15923147008751
N         1.28604007479539   -4.80221772254745   11.87983768247429
N         1.18961157785726   -6.44603088707823   10.36543989850897
C         3.08495804107391   -2.16879415873180    9.44523085366318
C         3.80601400001174   -2.53332334348170    8.31027498720543
H         4.30381008782854   -1.77083906674194    7.73162534490158
C         3.83685799762183   -3.86906829299530    7.94430204095358
H         4.37560276782173   -4.17685665352669    7.06195842555892
C         3.16680564244092   -4.80681804678807    8.71308558894616
H         3.15579371274789   -5.85445937169055    8.45536636294841
C         2.46565993028296   -4.37163670488875    9.83538773699425
C         2.91491651753760   -0.80309711417517    9.91502222051097
C         2.39317148461940    0.87407622557902   11.31708027851083
C         2.46447100629987    1.44485867363851    9.86984687205304
C         3.60918291816519    1.27669508306708   12.16895911297718
H         3.59729653762034    2.34420095360125   12.36428770353251
H         4.53799789955682    1.00925680455090   11.67159299596240
H         3.56921132679397    0.75089667763806   13.11965164473276
C         1.11743476563810    1.24037599524044   12.07575699534751
H         0.24675067479655    0.77110076611942   11.62538888410227
H         0.97936053371647    2.31750389889967   12.07009620788788
H         1.21014228049509    0.92158053062056   13.11178494022069
C         3.29472397191676    2.70049899040799    9.65638804378305
H         4.31814744012834    2.57375514287042    9.99613811952520
H         2.84502477107788    3.53922203075742   10.17940796214012
H         3.32167672841469    2.92772858810133    8.59309479274821
C         1.08454958523788    1.61859066417481    9.21767872326121
H         1.21953536917706    1.80215849045703    8.15377689317070
H         0.56266676116912    2.46666999527384    9.64930671053131
H         0.47741993547028    0.72320164962792    9.33599677353560
C         1.67019319264784   -5.22862338822791   10.70018488199090
C         0.48105405147427   -5.84051548937910   12.50874202328021
C         0.16047482974395   -6.83117990873478   11.34921341152718
C         1.36661502585384   -6.46786451509173   13.59888490922079
H         2.27868369636195   -6.87770392639016   13.17249948867357
H         0.82668875459176   -7.25163572859986   14.12028950139429
H         1.64081235367058   -5.70064620963425   14.31858036806085
C        -0.75077449563614   -5.22532900942208   13.17370086321771
H        -0.43503248666923   -4.62907075691956   14.02633628994768
H        -1.40944582553265   -6.00943630409112   13.53461686007341
H        -1.29703608997282   -4.59530212392090   12.47720064168484
C         0.26605314044631   -8.31725501825132   11.65653402068375
H         0.11176308023130   -8.87764185505194   10.73717361816695
H        -0.49828691008147   -8.60614471115153   12.37165201269429
H         1.24275709896790   -8.58316751420654   12.04923947424697
C        -1.17621794414163   -6.54412229928621   10.64937457715546
H        -1.26455801547832   -5.49264900701506   10.38373585868165
H        -2.00838840943670   -6.82525595187240   11.28674803108739
H        -1.22690943938539   -7.13265848307351    9.73563976806149

