62
CSD_code = ECOCAB | q = 0 | S = 0 | Stoichiometry = C30H28AuClNP | MND = 2
Au        3.60042369464442   10.51307239484080    0.05273820234900
Cl        1.35523755341805   10.58318407979193   -0.22621286193568
P         5.81981171062449   10.48555676447675    0.36512793415101
N         6.36779447989361    9.61891399738185    1.67449036765755
C         6.52909489541058   12.13489199026880    0.65966467917364
C         5.83801449768404   12.94634057608804    1.55555551524286
H         4.92395932018930   12.57948677388232    2.00356797944843
C         6.31820206453432   14.20381178710121    1.86737388409638
H         5.78036252004950   14.82923243283182    2.56415707142332
C         7.48757591524788   14.66112136663891    1.27968802313434
H         7.86280635193547   15.64487479403602    1.51906374023778
C         8.17236031406964   13.86063408543951    0.38062821147421
H         9.08083212516902   14.21974421744531   -0.08040065986397
C         7.69749142126783   12.59900068599993    0.06724817929539
H         8.23250536206634   11.97990909538726   -0.64025303387987
C         6.69703322168444    9.92716036054149   -1.13074031451253
C         6.52597020876859   10.67335486202748   -2.29497275584125
H         5.94715142690119   11.58769520921793   -2.25319731681344
C         7.09077854365448   10.24555924525932   -3.48017599242568
H         6.96276120903341   10.82787122036117   -4.38049667607001
C         7.81536488889331    9.06300126338977   -3.51431595514139
H         8.25498257529418    8.72787711731260   -4.44175239176153
C         7.96652459252771    8.30557888901548   -2.36513070252942
H         8.52015984174487    7.37861670405305   -2.39672236513612
C         7.40285297864141    8.73113943939755   -1.17481449421249
H         7.51008210056911    8.13579407420177   -0.27872561190639
C         7.76843825271568    9.71201208897461    2.06902868128992
H         8.33252524493417   10.16086064734207    1.24372140802542
H         8.16816683589306    8.70775971692041    2.24260937863149
C         7.98245184393999   10.56228563006298    3.32312401942554
H         7.47328085855368   11.51912713269067    3.19387244116642
H         7.54174932567669   10.06422565974749    4.18662787832226
C         9.46690539532683   10.79545352232969    3.57031349323687
H         9.98632618601654    9.84745555085111    3.69315265863702
H         9.61168745337088   11.38454336602454    4.47183564606749
H         9.91502513216442   11.33008992123627    2.73511605483152
C         5.59508647235268    8.48957351922713    2.19092312625550
H         5.98294259451882    7.54974444394865    1.78778520525040
H         4.57171463865000    8.59026625540790    1.81201431900646
C         5.59736975446971    8.45996689166419    3.69849732105083
C         6.38136976804001    7.52780044719119    4.40368644693352
C         7.18968453582628    6.53313105193872    3.78681693849685
H         7.21513943349908    6.44553460151197    2.71157667711502
C         7.94293462743079    5.66307136034952    4.51440796657237
H         8.54492270233831    4.92019081384427    4.01139565985094
C         7.94822629336752    5.71257994602024    5.92202592320547
H         8.55249690504976    5.01094962101731    6.47719450521338
C         7.18844638494135    6.64044401304743    6.56107729613429
H         7.17240595399587    6.69495143452520    7.64014020997835
C         6.39314434969880    7.56593642062875    5.83706298776740
C         5.63351274935982    8.51594809399578    6.50852074241939
H         5.65474823338078    8.53994551506366    7.58926030671524
C         4.85160616455808    9.43796360435940    5.82346351995913
C         4.08158055842939   10.40414732076744    6.52031428269603
H         4.11274120883526   10.39566510813465    7.60055240050359
C         3.32285576389539   11.31230590070519    5.85066698885555
H         2.73543022107574   12.04389516668216    6.38517019408205
C         3.29451432364020   11.29496314216070    4.44200578700741
H         2.67884169963540   12.01016625584771    3.91640423814828
C         4.02182152498342   10.38131461582896    3.74194963476213
H         3.96459449953764   10.39374284482448    2.66271913543404
C         4.83077829595080    9.41386494871505    4.39307387129456

