43
CSD_code = ECONAO | q = 0 | S = 0 | Stoichiometry = C20H15Cl2N5Zn | MND = 5
Zn        8.88517014409618    2.00513555807912    8.79089560563081
Cl        8.56490139502062    4.08572662196709    7.86099190327767
Cl        7.65107506753145    1.15950755017540   10.38181428824384
N        10.39682849625405    1.91525783030179    7.16895429216373
C        10.46293120315109    2.32982418084175    4.77094000807580
C        12.64267315456322    4.07087645261578    9.03183032730744
N         8.12546690611158    0.69691084896968    7.15430424615696
N        10.82609145517200    2.59756843846247    9.62024837376356
C        11.61926049500316    3.12344843851424    8.70417927094206
C        12.74390400846642    4.40609675576689   10.40339999266792
C        11.09366764015703    1.59276289473097    3.77425832864783
H        11.20045714992962    0.52301612614328    3.88462479988454
N        11.42750982179206    2.71586705518327    7.41667470501795
H        11.82369633741951    3.26671358349760    6.65596144707927
C         8.71112135222053    0.89033878607748    5.96771062149357
C        13.50979240425594    4.68269502631342    8.11068318586815
H        13.45531402358294    4.44087174900275    7.05965113410843
C         9.93008097218185    1.69620893855558    5.99683929551526
C         8.14479468679077    0.41042455493001    4.78813322836611
H         8.61997442533183    0.60420449102123    3.83934497332423
N        10.95016739544989    2.89887885264427   10.89853679890879
C         6.38273155756112   -0.52364701738619    6.10191406609982
H         5.46328940426708   -1.07784094356715    6.19946995399012
C        11.84573620641131    3.74956978330425   11.28933642020180
H        11.87692715912327    3.94729284261013   12.35073972973757
C         7.00138400807248    0.00988680301851    7.22475347826629
H         6.58779577200668   -0.10367735806726    8.21782657713195
C        11.59440339457029    2.23488015529880    2.65523205064279
H        12.08245463111230    1.66077512736193    1.88169895238029
C        13.70120417836348    5.34497211830882   10.82229247692017
H        13.76464186975845    5.59357664797366   11.87075861174539
C        10.84394722756272    4.34540052137810    3.51909134902808
H        10.74242732137791    5.41542237549485    3.41844307753412
C        11.46945675449213    3.60869516476714    2.52618544997615
H        11.85859846818837    4.10440525311284    1.64948053659671
C        10.34397055030763    3.71336865078573    4.64399497894760
H         9.83221951152443    4.27024720812125    5.41777671013235
C        14.43533736264011    5.59647599295413    8.54661106983863
H        15.09858467818579    6.06870054990828    7.83757980622690
C         6.96396146406237   -0.30887608191692    4.86211309007781
H         6.50349091124293   -0.69147659412310    3.96332831470009
C        14.53177153190894    5.93041078380663    9.90339142987249
H        15.26708750280874    6.65530328301550   10.21840504351520

