58
CSD_code = ECOROE | q = 0 | S = 0 | Stoichiometry = C25H27Cl2N3Ni | MND = 5
Ni        7.60934152303556    2.86908428818333    3.41728957533440
Cl        7.85342975551031    2.20236628228643    1.19776467894202
Cl        8.15495568345266    1.12878237206303    4.36261593680005
N         9.38262256452484    3.84883583295186    3.60262815863998
N         7.12135712175130    4.42378810621451    2.71132970771462
N         5.59176915574040    2.63495398491042    3.54859602376098
C         9.38454806598155    4.91923965399789    2.87936217148339
C         8.07466666564219    5.30728593811770    2.37477669176451
C         7.75818255373049    6.42369907404124    1.60796353356400
H         8.52413269864753    7.12550963254658    1.32035900689970
C         6.44263475156572    6.61030581444200    1.20951745385668
H         6.17717719215504    7.46587377801028    0.60774040165523
C         5.46959986460558    5.69325052995173    1.57878907870769
H         4.44562058083350    5.82378765281495    1.26837452265752
C         5.84067907154525    4.59406957151023    2.34611283608931
C         4.98668007081188    3.51407582532778    2.82059239256237
C        10.59035398780574    5.74768108867562    2.58039863579043
H        11.44628979478778    5.39594334480971    3.15134839099597
H        10.39621937110823    6.78979488414544    2.83079235923013
H        10.82497559920164    5.69249429446835    1.51783726700219
C         3.53089654416106    3.49531490970313    2.48881616874137
H         3.02406517944532    2.70594842777302    3.03864583966203
H         3.39470238361997    3.32860341391799    1.42077027151417
H         3.08075733617105    4.45433560531129    2.74204468414175
C        10.54441854931230    3.31151573636036    4.17645380884034
C        11.53207340749876    2.68543223628702    3.40554789692411
C        12.63336968932446    2.15317138133218    4.06202630456816
H        13.39911561330761    1.66254754823411    3.47912617999868
C        12.75828530701581    2.23040716706508    5.43612186247335
H        13.62468789953836    1.80966561062972    5.92407573842272
C        11.76057047408751    2.82560445140831    6.18797892549809
H        11.84360807474320    2.86639989868533    7.26399191830681
C        10.64114829432578    3.35970085743889    5.57487160213018
C        11.39495250364912    2.53913217296187    1.92225642067368
H        10.35346598852629    2.39947318046068    1.63838157277084
H        11.96052403836184    1.67629504037864    1.58015947270579
H        11.77659924700334    3.41855625716121    1.40195484358106
C         9.53530577967679    3.98753986195858    6.36283924876811
H         9.66089483941728    3.79778467203687    7.42498971632596
H         8.58228280325265    3.56267653566345    6.03450336849734
H         9.49730177443447    5.06572526774355    6.19947126963017
C         4.94527884027094    1.51411185886771    4.08989695840770
C         4.81080831575415    1.47096990748443    5.48544319563136
C         4.19735804011658    0.37513278531206    6.06601672054653
H         4.08479541758664    0.33978786124341    7.13953644918759
C         3.74542458535303   -0.67428547379028    5.28531001642493
H         3.27488312892680   -1.52876625577383    5.74816859010598
C         3.91905585176880   -0.63895328650962    3.91483068579754
H         3.59216990181719   -1.47179662263329    3.30953262512065
C         4.51968667270345    0.44560090223543    3.29025406106678
C         5.32992435230866    2.60921379621916    6.30561755739239
H         6.35702076017775    2.82651595305305    5.99835332192920
H         5.32155238311177    2.35972785846151    7.36275622106464
H         4.73438925568597    3.51039136610511    6.15136786650914
C         4.74580540532986    0.43246579032050    1.81067807529678
H         5.67972255974714    0.92895718621107    1.55359274884899
H         3.93412569924355    0.93478951883480    1.28273052572978
H         4.79433703078344   -0.59231532761992    1.45149844330608

