47
CSD_code = ECUHAO | q = 0 | S = 0 | Stoichiometry = C22H17Cl3IrN3O | MND = 6
Ir        6.96565397032514    1.50189466978589    9.33358957302659
Cl        4.78701229921987    1.50384153356651   10.26574008378707
Cl        9.11712414934989    1.67728889309878    8.35416263273835
Cl        7.31099428949676   -0.70570489140040    9.91472990238569
O         5.38565514738834   11.31072356665595    6.85920543096859
N         6.17805737679749    1.19263015083247    7.52274335127728
N         6.68325435538892    3.30568069955074    8.85893221043255
N         7.66887767293453    2.34330838042687   11.00437675623451
C         5.95389833245622    0.03741403630698    6.91204929538990
H         6.23316325712847   -0.85138233502274    7.46406188433224
C         5.39731311685852   -0.03740343157006    5.64634906782948
H         5.23306759719100   -0.99905908965068    5.18855243105343
C         5.06134201387192    1.13833334357629    4.99281007809339
H         4.62525740418152    1.11652744789891    4.00584475327673
C         5.29450120892563    2.34561029593984    5.62779484560511
H         5.04305359058380    3.27625150927308    5.14539442166130
C         5.85669670318408    2.35471224701440    6.89959487981876
C         6.14698803165234    3.57132223693939    7.66294821756033
C         5.92902211497075    4.88891954574130    7.28890808860352
H         5.47986851240086    5.12490854416625    6.33836217576151
C         6.27096967302919    5.91933871924255    8.17113822168839
C         6.82831457466648    5.58945765355611    9.41123390697369
H         7.11583820358946    6.37192650128208   10.09397664382769
C         7.02865972041645    4.25566890309028    9.73473966733730
C         7.59815428913995    3.69818349697148   10.96461648288315
C         8.04565720736748    4.46337558230832   12.03599895817814
H         7.98542322368079    5.53869893866283   11.99006311653349
C         8.56710398609094    3.83491651088389   13.15336618931163
H         8.91846591273290    4.41640835005707   13.99188139717478
C         8.62901396163498    2.44995663118451   13.17468391946188
H         9.02650311917478    1.92012914477174   14.02480430262425
C         8.16807372414933    1.74378822098297   12.07640617638919
H         8.19493901022935    0.66170797340240   12.04387236494242
C         6.04804764184286    7.31954707992865    7.80318367754299
C         6.26781959706101    7.76035342204094    6.50116006136958
H         6.63492449191835    7.06918055739069    5.75681851747311
C         6.06684634963137    9.08058952028547    6.14530220587547
H         6.26253470910010    9.38352363193356    5.12885694334400
C         5.62210017111470    9.99788712593806    7.09392588587529
C         5.39207238369031    9.56040117461986    8.40206066081153
H         5.04021732731617   10.27850068940994    9.12543526199284
C         5.60841074664875    8.24791039104396    8.75016233000143
H         5.40318932718911    7.92677699198356    9.76029382816685
C         5.59018619921886   11.81763329341194    5.56095442294824
H         4.93930492638691   11.32632872500047    4.83068802225039
H         5.33596662466816   12.87486023124053    5.61513229297831
H         6.63436175400305   11.71293318624207    5.24899446221065

