55
CSD_code = EDAMAX | q = 0 | S = 0 | Stoichiometry = C26H24Br2NiP2 | MND = 4
Ni        2.11715971966730    4.41780342251870    2.74099636774761
Br        4.17260894020584    5.28317973249441    2.49234078628538
Br        1.74411556791337    3.71940013653673    0.63312565650950
P         2.24796422328359    4.88956223590398    4.81960161997163
P         0.16208798038488    3.67477255027357    3.18050008662141
C         0.56320760989456    4.84258418718047    5.61108567483055
H         0.64848088110409    4.78371433605734    6.69956911350241
H         0.03394125627936    5.76555462172448    5.35068879014444
C        -0.16219248633036    3.64525236524361    5.01711401195190
H        -1.23791548043489    3.67039703092594    5.21194620267735
H         0.24476138100317    2.71834312128281    5.43263269972519
C         3.12142468196597    6.22458170097228    5.67316601212833
C         2.46213374926005    7.39109231334149    6.04682551740026
H         1.40326455534293    7.50542642666221    5.85977440988838
C         3.16545501927982    8.41472606285087    6.65509700801169
H         2.64965361242223    9.31739680224559    6.94827789977793
C         4.52665619459720    8.28722765048168    6.87732821897628
H         5.07212561876749    9.09186164707306    7.34712099014287
C         5.18963369776004    7.13558844143588    6.48435991614566
H         6.25330536538424    7.04165466685794    6.64181347821252
C         4.49406165124992    6.10736364004771    5.87828192688799
H         5.01215942884569    5.21718982422178    5.55039683896503
C         2.97719349253352    3.37083260537337    5.50306173366358
C         3.18441054000389    3.21484010810907    6.87021979068152
H         2.96359186426113    4.03182282831761    7.54453653760511
C         3.68336978100748    2.02074452006498    7.35500238383056
H         3.84672049551673    1.89935868867972    8.41583173604948
C         3.97598877210908    0.98110289956651    6.48455352615199
H         4.36694741784471    0.05165128937806    6.87050040036130
C         3.77731466054650    1.13398443698583    5.12252166332287
H         4.01255072853779    0.32957031309255    4.44201392125931
C         3.28019744020542    2.32806190803710    4.63324918902665
H         3.14397021273518    2.45399662479915    3.55362173971210
C        -0.94601326776874    5.02198138886709    2.67809084675131
C        -2.32851363954713    4.91851264639411    2.80024905476446
H        -2.76989570403216    3.99506638234794    3.15199419106320
C        -3.12750008439469    5.99184688074757    2.45486205945661
H        -4.20118682367752    5.91013593692076    2.54165028340825
C        -2.55548360707775    7.16885963120942    1.99504080512716
H        -3.18643764300794    8.00196524659590    1.72365394307288
C        -1.17982355553426    7.27739083600867    1.87651944261344
H        -0.73366825971059    8.19125106978966    1.51419544503108
C        -0.37680152582679    6.20463350947878    2.21712015965464
H         0.70956083035027    6.28388834539408    2.10609133567896
C        -0.60166085478017    2.15140827497880    2.57252851875420
C        -0.37420990771917    0.94852283252706    3.23466524868613
H         0.22198355216057    0.92530915056514    4.13751569785170
C        -0.89766140139089   -0.22715027998181    2.72962070508584
H        -0.72134135920159   -1.15795293633285    3.24848521614916
C        -1.63274733017796   -0.21203370117291    1.55561536898142
H        -2.03477000035475   -1.13295437274425    1.16065244454800
C        -1.83463759437007    0.97977099773995    0.87851678524110
H        -2.38863912812823    0.99003549875152   -0.04798393085277
C        -1.31520797854916    2.15927406813513    1.37683825732535
H        -1.44679329039533    3.08499945505475    0.83482227344276

