67
CSD_code = EDIMUA | q = 0 | S = 0 | Stoichiometry = C26H30Cl2N4O2RuS2 | MND = 6
Ru        2.28702242042477    3.81655603621944    7.65520227183749
Cl        4.26041551619433    5.09220474903680    7.52686747490098
Cl        0.18874088025992    2.72274600163879    7.79681943060800
S         1.35765074055648    5.52958968144758    8.89492338517480
S         1.69589424632796    4.96919288950854    5.79025196783448
O         1.19024592473140    5.20773495644632   10.30975980748325
O         1.54149681727515    6.39864290241031    6.03570844744413
N         3.31621623890388    2.16111347009991    1.52679984612942
H         2.77176148869785    2.46938399840968    0.73970897940768
N         1.50454268472635    1.66011354639979    5.27512749854119
H         0.88526895998460    1.99491082337991    6.03608805911405
N         3.20177805359326    2.24144473373761    6.65331402285588
N         3.07759140413756    2.76703232649265    9.18980515978849
C         7.28212167266949    2.46168338235753    2.50448472343197
H         8.31831023291847    2.52565560074395    2.80064861323880
C         6.90098980698756    2.98255951228918    1.26438351864091
H         7.65039106392237    3.43333982606336    0.63117046597798
C         5.59150739150819    2.93349238445938    0.83693869423050
H         5.29666108601084    3.33777761413753   -0.12017698200167
C         4.66098911137352    2.34592436947446    1.68329656415852
C         2.81132782669838    1.54441807400508    2.64670898812443
C         1.41501501440933    1.22632057484865    2.84188447915826
C         0.59897372544881    0.92020960258411    1.74849166074843
H         1.04010200833411    0.89126514370520    0.76228567463735
C        -0.73852388115601    0.63231032721168    1.90720992519395
H        -1.34514562444711    0.38950368721815    1.04842779454070
C        -1.30098493744096    0.66032332671334    3.17774781710846
H        -2.34959674444365    0.44303929561400    3.31020647094729
C        -0.52168128134082    0.97233466821327    4.26938914653770
H        -0.95089836864636    1.02048632423850    5.25884062886073
C         0.84327573803492    1.24619310751430    4.13017353086372
C         2.79808553704859    1.53171288652904    5.65447710148424
C         4.44420162497252    2.00306138541870    7.35112458053955
H         5.12717960377672    2.84011103218009    7.13783863734876
H         4.92489105383657    1.05720263592732    7.08304443599171
C         4.12594644414223    2.01374061120009    8.82365656166147
C         4.85256900666174    1.27243147118097    9.74034356008175
H         5.69579819264396    0.68815719092082    9.40557367137932
C         4.48606470415961    1.29439107925526   11.07687238779135
H         5.04227222456477    0.72989569578738   11.80912760115366
C         3.38344429503387    2.04919764822891   11.44019799279707
H         3.04480431052938    2.09010703445674   12.46249016939334
C         2.70920974877104    2.76844303910547   10.46846463051098
H         1.85821927435927    3.38864649547076   10.72351755704165
C         3.64448195149451    0.59580786363647    4.82629999233540
H         4.60380408586597    0.37568963658917    5.28508273969946
H         3.09177475538330   -0.33627714016260    4.67735952769121
C         3.84308791730269    1.29420986262327    3.52365700628869
C         5.03398304979132    1.81052453572460    2.94196163054362
C         6.36709100910783    1.87596133214385    3.34848394745089
H         6.67088359677151    1.48108563623394    4.30637580895225
C        -0.30041730975364    6.06898596537566    8.36487577587573
H        -0.91937056754366    5.18213860252462    8.26678878724719
H        -0.21159703559085    6.59038083061949    7.42066021955533
H        -0.68962329740487    6.70965839597581    9.14749132742222
C         2.17366108912582    7.14833207676703    8.88170683270624
H         1.60392843402198    7.80813636776315    9.52455313691369
H         2.20815431888487    7.49870394066924    7.85756562765960
H         3.17684081237470    7.00755749458269    9.27025113781964
C         0.20526772620984    4.53072471654838    4.81679496670273
H        -0.53402506851662    4.13674759918510    5.50640553600250
H         0.44563561114329    3.79160852827334    4.06516525449104
H        -0.14895224090078    5.44904210618701    4.36403481040702
C         2.91611314936773    4.84452917534869    4.44478178980755
H         2.61703221459976    5.51932250503488    3.65164243959322
H         2.96717167341658    3.81795837084365    4.10325562740392
H         3.86922888765617    5.15117045535558    4.86578912468658

