28
CSD_code = EFOPUK | q = 0 | S = 0 | Stoichiometry = C8H11CdCl2N5S | MND = 5
Cd        2.11216814778390   -0.45211608576551    3.57093762124017
Cl        2.49162081384570   -1.97078276365546    5.44905551403723
Cl        2.40456640771975   -1.52556124542939    1.51891466109838
S         3.18533036714426    1.83590601777194    4.63697436242315
N        -0.38183029593491   -0.50989861443952    3.28134411660589
N         0.71920254244755    0.49833274967944    5.51121073180632
N         1.61895276327070    0.75416752089564    6.49096341178380
H         1.54327272517488    0.25183227885234    7.37416246080747
N         3.64009006646506    1.54525563974194    7.21881909336644
H         3.43307779575502    1.09350883897115    8.09874329477926
N        -0.38571683101391   -1.19401977428233    6.74903574496638
H         0.47406354078870   -1.48944667709371    7.19923244277141
H        -0.99973338814185   -1.98007197422942    6.59274856833176
C        -1.04333718329515   -0.73411299068907    2.15856875388705
H        -0.46183475093450   -0.65585450115106    1.24888945795740
C        -2.39102658321666   -1.06874269107910    2.13777182439844
H        -2.89323908322447   -1.24928923299463    1.20104357315418
C        -3.06719490501456   -1.16952651697363    3.34294914677431
H        -4.11654273996513   -1.42342829053738    3.36799657481053
C        -2.37437432866897   -0.94475011742781    4.52199780220276
H        -2.87095973950767   -1.00307527605989    5.47859188044477
C        -1.02487759593482   -0.61323547164455    4.44639369946350
C        -0.17514643595355   -0.41134635722621    5.63816856225864
C         2.80897127575462    1.32660685355910    6.18775153693615
C         4.98408654471286    2.04483804296920    7.06254473115110
H         5.68965577034350    1.23106787685906    6.87545831089731
H         5.27389747364138    2.57365345206179    7.96812728925509
H         5.00635762605875    2.72758930954570    6.21600483244018

