42
CSD_code = EFOYEG | q = 0 | S = 0 | Stoichiometry = C11H24Cl3S3Ta | MND = 6
Ta        0.91134702722708    4.35278618732568   10.59886309575823
Cl        1.49470817913986    4.15526511541246   12.77591269648199
S         3.61948616639279    3.25130629366858   10.31755441121450
Cl        0.68234667122037    3.33764904667984    8.55023471482405
S         1.70700569944290    6.37162506972677   10.00183438682155
S         0.52042666494557    1.43116630009571   11.38156731966254
Cl       -1.31273949990416    4.65905039736073   10.89655920650368
C         2.19622185400696    0.83641321042959   11.80979020362645
H         2.59825904667543    1.65244149835412   12.41197975392536
H         2.07205113921318   -0.04247435211298   12.44320230937609
C         4.11844904166873    4.13930045668383    8.80009182932683
H         3.40672657126323    3.87131324867072    8.01882030524758
H         3.98821938967861    5.19339009563305    9.04813976879761
C         3.27054435357881    1.59635165680493    9.59659334514359
H         2.35931792143213    1.70800740960614    9.00855415388535
H         4.10315770584540    1.35944321170730    8.93647717957916
C         3.13475731522640    0.51124390446616   10.65510173420371
H         4.11530658684176    0.31293186452214   11.09476780998853
H         2.80394601458869   -0.40246602028249   10.15475880650338
C         5.55479370886678    3.85422132616725    8.39641638414417
H         6.21665521649832    4.10165373079154    9.22792268675516
H         5.68387526481265    2.79359258374703    8.17031094767545
C         5.94264819635459    4.67877452016723    7.16913604522898
H         5.27250306848221    4.43222075534531    6.34319838074143
H         5.81413257146830    5.73833899332702    7.39517014051380
C        -0.04442751289991    0.22650454017890   10.12154270965323
H         0.56941612512420    0.33799834808655    9.22900978320382
H         0.07789835987085   -0.76905242629312   10.54519154533789
C        -1.50033468899565    0.53238734297228    9.80209351084197
H        -2.10816235694647    0.37116873759530   10.69445511386406
H        -1.57887303036963    1.58877443653005    9.53188638277192
C        -2.03762064940512   -0.31445991053432    8.64821857124749
H        -1.40621924885052   -0.16689404080284    7.76937928630626
H        -3.03798584111099    0.04471720758590    8.39980077341458
C         7.38448407924559    4.41690521232716    6.75231331854502
H         7.64160597748533    5.01326411805154    5.88088229902884
H         7.52812414137664    3.36762985971620    6.50405530067726
H         8.06719891709247    4.67508010736561    7.55827887607099
C        -2.11432308007944   -1.80004241166067    8.98060703797546
H        -2.58826759878436   -2.34243357225524    8.16609125572276
H        -2.70107678430116   -1.95806296962209    9.88276185882986
H        -1.12388268342045   -2.22153108353933    9.13377476057646

