61
CSD_code = EFUKEX | q = 0 | S = 0 | Stoichiometry = C20H28Cl2HgN8S2 | MND = 4
Hg        2.27979973297142   21.31760345194588    7.74164929418962
Cl        2.34469271561206   23.77087695213042    8.06150247785920
Cl        1.22882386599447   20.53429136082505    5.89540246060688
S         5.00184544567739   20.75967491357330    8.25197681887760
N         7.04463849626586   21.90705121179864    9.41024259857114
H         7.57011603057210   22.73064631078406    9.66161158055847
H         7.46526600420471   20.99613861780912    9.37682143839746
C         5.84461843212990   22.09282021225973    8.84529486962888
N         5.38617969195246   23.34506333246252    8.78074138123628
H         4.44700878560667   23.54446905203957    8.39773469251507
N         6.15115774159950   24.35723405775325    9.25904960907124
C         5.71552137749127   25.55213482162433    9.12183743020261
H         4.76320424856990   25.74801821129245    8.62210955778643
C         6.44560853037354   26.68517560029538    9.61725383263851
C         5.99046149301682   27.98202018482819    9.36542931806257
H         5.09408851191625   28.12369929460963    8.77906969884507
C         6.66358220539644   29.08124812831812    9.84158767945667
H         6.27295733806697   30.05941699539926    9.61499472075262
C         7.83086878517039   28.94259491574230   10.61137916633704
C         8.28872222076149   27.63605725791914   10.85542525952262
H         9.18806174204981   27.47149771963000   11.42508295802471
C         7.61492831114536   26.54303166764766   10.37070170203275
H         7.98006600292281   25.54875412706140   10.57266974588417
N         8.47133468331049   30.03800514078364   11.13088131693470
C         8.14329285365548   31.35786442651210   10.64221046489078
H         8.24709720875430   31.42776458990957    9.55439639898520
H         8.80923585254092   32.08799513278597   11.09562373883162
H         7.11857136372715   31.62642110871274   10.91104674057576
C         9.72220819402769   29.87893842643225   11.83303363458580
H         9.60310609904521   29.16951013421534   12.65238737139282
H        10.01917538841322   30.83529351481230   12.25843705515616
H        10.52636515692462   29.52819906764476   11.17556399696742
S         1.79192433699839   20.44102477362672   10.28539266889209
N         3.45162466730973   20.86735600122381   12.27462188825124
H         4.04761438109955   21.46674486433317   12.82440369928130
H         3.35241707059397   19.88744280897462   12.46883335426534
C         2.83363836869617   21.39494415678598   11.21551203720712
N         3.01612695604285   22.69410268022113   10.97137015297344
H         2.53610131707708   23.14428707948094   10.17728468702977
N         3.86701890032642   23.42814903062592   11.73341362758640
C         3.87602779224856   24.69345282710205   11.53912931079182
H         3.20236914123706   25.14646792473892   10.80587238450945
C         4.74898755761942   25.58067829968466   12.25248454657199
C         4.57464348104570   26.96418580909049   12.15164415547091
H         3.76726063948365   27.35229374099783   11.54796058666053
C         5.39620008543693   27.83991259418587   12.81727537508222
H         5.21178855863258   28.89548944848420   12.71234662258627
C         6.46423617169174   27.37829064251562   13.60515153150054
C         6.63708722270136   25.98570153217495   13.70240626790716
H         7.43366447895677   25.57673498325407   14.30168957829558
C         5.79981306562737   25.11575800885190   13.04883617278017
H         5.94966658334417   24.05089277004668   13.13475433954799
N         7.31333137710727   28.25075727206393   14.22922743692227
C         6.98497620328475   29.65587145766022   14.28861633442974
H         6.01327835894671   29.82509902699363   14.76469367692584
H         6.96457388667218   30.08458216894438   13.28502260601216
H         7.74222538164722   30.18147216084566   14.86528163865658
C         8.34000170919934   27.75766684204105   15.11484116437893
H         8.99434671415269   27.05939253432128   14.58844846623343
H         7.92128472086589   27.24939324052447   15.99095748008776
H         8.94876636203263   28.58944537979623   15.46287919972411

