24
CSD_code = EFUQOO | q = 0 | S = 0 | Stoichiometry = C5H14Cl2N2Pt | MND = 4
Pt       -2.87411701437227    5.93415282358425   -0.12887209154347
Cl       -4.95689100648298    5.75504703553576   -0.95107845168389
Cl       -2.02852148691223    6.97179304097983   -1.93306193413118
N        -3.65215658328117    4.96196668196555    1.57947709694048
H        -4.17704225490259    5.67421612038781    2.08658228096151
H        -4.34501609913894    4.33017988706652    1.17252275539171
N        -0.91919814442508    6.09203968071114    0.66517307075892
H        -0.82317743931931    7.06490936661318    0.95547489211553
H        -0.33698312149484    5.98278271428203   -0.16777660239507
C        -2.74490298384728    4.24856266172210    2.47680154010240
H        -2.40890165747608    3.34038514144324    1.96970547215372
H        -3.27665819893120    3.94552187247021    3.38849641600839
C        -1.50407719965069    5.06761639494896    2.89514920850178
C        -0.49415084726415    5.18769716172110    1.73266788071284
H         0.46584223551855    5.52054896623490    2.14909805057585
H        -0.34274576487097    4.19570264949833    1.29927894341376
C        -0.81037259009350    4.30065649778168    4.02714563766868
H        -1.47622838259878    4.19082752740519    4.87910915340681
H         0.07780136599456    4.83088848407810    4.36068403045296
H        -0.51285302469686    3.30899604323080    3.69475791684199
C        -1.91504096771150    6.45300251793795    3.39951427787951
H        -2.40765045404363    7.03388958635148    2.62129384633381
H        -1.03981303904692    7.00352168422372    3.73695805302349
H        -2.59714534095215    6.35809545982596    4.24139855650925

