37
CSD_code = EGETOA | q = 0 | S = 0 | Stoichiometry = C12H17Cl2N2O3Re | MND = 6
Re        2.56633682682361    4.80790181016727    7.07698767130067
Cl        4.39561004638740    4.68342679787754    8.39348712447596
Cl        3.72836095804336    3.76594871449142    5.41509788772516
O         1.62933425836883    3.52630408633419    7.53993247487960
O         3.02510948512803    6.52925008722278    6.37095132757534
O         2.42059451302084    8.59013214816430    5.76477890939985
N         1.43416198773682    6.19441927899058    8.43050642896476
N         0.69502938931041    5.55005669098955    5.77720117066998
C         2.00048866054282    6.81475396648023    9.45287351375739
H         2.94887378718231    6.40719520937493    9.77845863610420
C         1.41826517109270    7.91328068533304   10.06223583044191
H         1.90953074452317    8.39599843891689   10.89083112617775
C         0.20817432458221    8.37559794269142    9.57122592753484
H        -0.27106698513043    9.23930914744639   10.00586910447924
C        -0.37771523963547    7.71679076846753    8.50119257170203
H        -1.31871266477261    8.05266906355528    8.09460249166235
C         0.26530946115727    6.62016330021033    7.94577426149064
C        -0.31945994243018    5.84692798211333    6.78993547173807
H        -0.68230921088906    4.88985563831360    7.18169533445316
H        -1.16294738249754    6.40263299485944    6.35917457642552
C         2.29251806022694    7.39117450367374    5.76809558268445
C         1.12746362912973    6.69660556191235    4.99138819264316
H         0.32524822506282    7.43505036908354    4.87170785624161
C         1.68820041723819    6.25401716623061    3.63786856092947
H         2.43722485544431    5.47758542492326    3.82275796036333
H         2.19537641506842    7.10644845515390    3.18098069733517
C         0.63417048107925    5.71798996545014    2.65968920785893
H         0.00776392567790    4.97244868119691    3.16642549713476
C        -0.26804292918528    6.83335728831440    2.13665339481645
H        -0.82073210012939    7.31426052909381    2.94081990080430
H        -0.98899365444572    6.43301814465105    1.42773236901944
H         0.32484298701787    7.59103621107534    1.62982825233262
C         1.34235214161027    5.02162144076332    1.49999759906618
H         1.95925038743004    4.20437865766420    1.86508868531672
H         1.98134165749870    5.72490990281320    0.97151858094495
H         0.61751867347276    4.61997708576201    0.79595951149155
H         0.38892863925727    4.79290586023926    5.17157631005882

