63
CSD_code = EGIKOV | q = 0 | S = 0 | Stoichiometry = C30H28Cl2N2Pt | MND = 4
Pt        0.08149216818233    3.87454412631519   11.05594239385986
Cl       -0.82404463471749    5.17008245190289   12.64914011020271
Cl        0.87937428651072    2.51881789231938   12.65629322232859
N        -0.52924172544732    5.03567416795705    9.55596134954926
N         0.88736451304681    2.83075405724555    9.56153351004789
C        -0.08055600033857    4.62838407516421    8.40592574369011
C        -0.20470311442658    5.08543110898542    7.03257515954523
C        -0.81952194097795    6.13631686459939    6.39479094463985
H        -1.37821806854395    6.88130964106022    6.94086293619451
C        -0.70612893548502    6.22436818998790    4.99495566208278
H        -1.18985685165832    7.05251953747161    4.49801400279527
C        -0.01209796129079    5.30681543737948    4.24319868469102
H         0.04665794517791    5.41609073602945    3.17031008683416
C         0.62798834998704    4.20998600679137    4.86514954871302
C         1.37020976635427    3.17570039846875    4.24969085808576
H         1.49695105126920    3.18031862469389    3.17705262242027
C         1.92451856521901    2.17208417745179    5.00744166724767
H         2.48662963951449    1.39175080866215    4.51563496704201
C         1.79347953140314    2.11001244055903    6.40699639942417
H         2.24482831157567    1.29865265559731    6.95786993980304
C         1.08027228634278    3.10087396254665    7.03839462039502
C         0.70810670228252    3.40529088026863    8.40928204749806
C         0.50920378608679    4.13712178351362    6.25430687595691
C         1.61282146921515    1.63405094143217    9.68422122528090
C         3.00870633261552    1.67110432076455    9.73238416271997
C         3.69413160457549    0.47747681603555    9.87742438661083
H         4.77348497246716    0.49535053634389    9.92597039497681
C         3.02698894168589   -0.73666218323634    9.97971382053709
C         1.63987924924991   -0.74084866396759    9.95128213060668
H         1.10747817454821   -1.67543857962256   10.05282602776070
C         0.91530765528536    0.43146401151334    9.81348699507964
C         3.71634179406128    2.99020235175533    9.67393334334852
H         4.77407566221720    2.86835228188367    9.88998559006598
H         3.28301641462702    3.66994323133676   10.41147738979170
H         3.61248060417313    3.44900952272268    8.68935218014460
C         3.79895783303416   -2.01340983570070   10.11627956338477
H         4.64940335226478   -1.87820711290974   10.78074939528089
H         4.18032151731523   -2.32749717103848    9.14385502240819
H         3.16931177039223   -2.80798810233711   10.50780153046394
C        -0.58129811840843    0.44792771013825    9.81265576569852
H        -0.97914700885092   -0.53280399900693   10.05600586857763
H        -0.96731008297685    0.75196940089352    8.83858482167459
H        -0.93738844781423    1.16786458133446   10.55693892635321
C        -1.31310571369673    6.19563491177126    9.67255423206800
C        -0.69488890150289    7.44643357079500    9.71937399613729
C        -1.49181082307663    8.57145231017499    9.85718438059197
H        -1.02021908832918    9.54255251243127    9.90385431874965
C        -2.87223988946976    8.47510883078759    9.95373352331902
C        -3.45832250668420    7.21567750894249    9.92782003604965
H        -4.53074438644583    7.12837361087944   10.02556313335151
C        -2.69891727081035    6.06666551559831    9.79696734478453
C         0.79956316731202    7.53554029057562    9.66550202295168
H         1.23279165831408    6.85471058133131   10.40224941774064
H         1.13247638701932    8.54601908091616    9.88529839671069
H         1.17491941858583    7.25146345165519    8.68099710121236
C        -3.72616293766645    9.69854559352398   10.09050902288903
H        -3.11773552645359   10.58111802800123   10.26864773300628
H        -4.42567665410888    9.58292491015063   10.91604494086353
H        -4.30705090553699    9.85713923859011    9.18164581474100
C        -3.31100325022023    4.70083112324211    9.79681847026161
H        -4.36609780066418    4.75009001657994   10.04952219747970
H        -2.80025152910174    4.07306441192730   10.53435957797224
H        -3.20539480720361    4.22679441887042    8.81980244525066

