56
CSD_code = EJEGIK | q = 0 | S = 0 | Stoichiometry = C21H27Cl2N3P2Pt | MND = 4
Pt        0.91493127905551   -0.14756334272493    8.65528036198259
P         2.94737435824244    0.43618903678725    7.83787017659246
P        -0.12502319330334    0.74155146825680    6.84543636368412
Cl        2.03575461052119   -1.05987342644334   10.45145170160888
Cl       -1.14976022417090   -0.64796071080029    9.52048315540035
N         3.29408105052841    2.24780800416534    5.64012150179752
N         2.45059256331736    2.80646307456029    4.80446484272541
N         1.19183204060328    2.47654633887673    4.97845258912808
C         2.54045493085119    1.49285170068048    6.42960734719517
C         1.19754154195782    1.64029554179825    6.00903888438955
C         3.89582341624482    1.54695541559898    8.90964802946560
C         3.14884126831548    2.32086864396483    9.79307871469416
H         2.06858374838640    2.20018085720761    9.81484804083366
C         3.78409282437650    3.19981056889522   10.64848732809922
H         3.20669145994192    3.79482681575198   11.34031004682351
C         5.16650907053921    3.30371865717966   10.62525962496623
H         5.66633317574270    3.98405191232095   11.29889520425493
C         5.91036281378335    2.52829344778761    9.75078196028995
H         6.98783323469634    2.60533379488497    9.74406725460052
C         5.28077326437416    1.64631043951221    8.88983570602386
H         5.85971278163659    1.03157540953134    8.21560052836759
C         4.13467405757774   -0.75825801165388    7.17337664122920
C         4.99928808241939   -0.43339745651868    6.13205344834379
H         4.96846219051686    0.55614075753681    5.69705977098755
C         5.88909442246532   -1.38394100279755    5.66502095801113
H         6.56386026856043   -1.13669583907707    4.85814263702916
C         5.91712878767072   -2.65000696319837    6.22919797347412
H         6.61406966952487   -3.38719254405454    5.85841821009648
C         5.05405115741376   -2.97213462666813    7.26447797495186
H         5.07721743185654   -3.95905884664146    7.70170412831363
C         4.15934675050265   -2.02957087067576    7.73810320612141
H         3.47966594051265   -2.25995404036403    8.54783163248415
C        -1.49576573148729    1.95592183971737    7.05402766208195
H        -2.31424636688880    1.38658265496194    7.51108307592201
C        -1.00403733115115    2.99413836964941    8.06066833222014
H        -0.66025481843698    2.48924856590185    8.96656753269896
H        -1.80566203594236    3.67773024592723    8.33188284451876
H        -0.17894772549048    3.57338888078771    7.64595332203827
C        -1.94165594523561    2.58160273438360    5.73818536609243
H        -2.37709758507099    1.83774199986624    5.07513673752810
H        -1.09651420314525    3.04343369857854    5.23173281491152
H        -2.69276507476172    3.34551390641833    5.93148850214401
C        -0.62841904381171   -0.50121086942854    5.57006729852792
H        -0.73690879502099    0.00598318066012    4.60330701844780
C         0.50412897833738   -1.52460867907629    5.50498151842697
H         1.43978476229208   -1.06032075453596    5.18912647183659
H         0.26436229639218   -2.32459715695367    4.80734729809803
H         0.65607541045665   -1.96358063786224    6.49662832231677
C        -1.93717128914846   -1.15787505959661    5.99509867958538
H        -2.77360291458696   -0.46751791321429    5.91087659814211
H        -1.86604565322914   -1.48574316593822    7.03205011989188
H        -2.14429049815159   -2.02443838203632    5.36984259280096
C         2.87588711781342    3.71062955208332    3.77958523976711
H         3.94591587783825    3.86525886907487    3.89441089346460
H         2.34654030845114    4.65840504266351    3.87893537918046
H         2.66219548532393    3.28914887428285    2.79641043539888

