45
CSD_code = EKAKEG | q = 0 | S = 0 | Stoichiometry = C12H24Cl2O4PtSe2 | MND = 4
Pt        2.03879124644399    7.50406352528437   12.95166924777680
Se        2.84161938032921    9.03003057521576   14.68815870849227
Se        0.13884627680118    8.85861924782731   12.21481579613234
Cl        3.82281213134302    6.14974032512618   13.49226290442713
Cl        1.36792312860246    5.93953292767807   11.39894737696070
O         1.04692898752652    8.03394809898959   16.39470044012094
O        -1.12377131127819    8.44980026335503   14.56747600937548
O         1.75755692906335   10.31419087934588   10.66757527677742
O         3.55791169659203   10.85494314704562   12.83105449854006
C         3.35237766956216    7.88415414595931   16.20572344947773
C         2.10574882888561    7.11951279904552   16.58828461563346
C        -0.23501278221638    7.52592086323585   16.66593496100561
C        -1.26006939524717    8.41911067909671   15.96295763680592
C        -1.35633315700848    7.22931248805364   13.88917380991263
C        -1.35357754743270    7.60138142980965   12.42436224452194
C         0.12482393745272    8.72244072976250   10.25059868567186
C         1.46292768419006    9.25072788403680    9.78619178228031
C         2.98939431416714   10.95160459339444   10.44085144396787
C         3.38488860417605   11.69322136899586   11.72011959141763
C         4.61557274936987    9.91778093268397   12.74953648024251
C         4.70211866803088    9.32042367483547   14.13515851487649
H         4.15705679978826    7.21639843603107   15.90226575709996
H         3.67591220844781    8.54692541680245   17.01088305221924
H         2.13640868230827    6.77142661852895   17.63121302116395
H         1.98189293823366    6.24901869882457   15.92610607545180
H        -0.42941351339600    7.53150856958733   17.74940123387000
H        -0.31984561829748    6.49057314225600   16.30767896787995
H        -1.10809225645821    9.45194203350735   16.28203311390328
H        -2.27207151835523    8.08701425648446   16.24161536244893
H        -2.31050199340266    6.78291725373998   14.20622224236400
H        -0.54247771895192    6.51206342810753   14.07518609714737
H        -1.18355475349836    6.73450704498693   11.78658281866710
H        -2.27149670059045    8.12091477876058   12.14390605521770
H        -0.69568682288168    9.34794580130497    9.89324268279312
H        -0.02061885907558    7.68338577621390    9.95943222763015
H         1.43079313105327    9.60291303470247    8.74469029122897
H         2.22725471981970    8.46327660348212    9.87202780977735
H         2.90279213574065   11.67273914751934    9.61376332521101
H         3.75849037300887   10.21381235125511   10.17337469579361
H         2.57569227998473   12.36916937316642   12.00274004795500
H         4.30327117835353   12.26925165986952   11.52821289521734
H         4.38024982924428    9.11729984736947   12.03166577536486
H         5.55109476658409   10.41098665908312   12.44660176342135
H         5.22751983240785    8.36587864620159   14.13294000003592
H         5.15715284057906   10.01707084343750   14.84136121372128

