31
CSD_code = EKIRIA | q = 0 | S = 0 | Stoichiometry = C13H13Cl2NPdSe | MND = 4
Pd        5.10053725569571    2.56252641209606    3.93675759078995
Se        6.61745800785581    1.06905772023905    2.83235613391347
Cl        3.76202242773134    4.06664145724618    4.92122921041378
Cl        5.70586715061874    1.80781113261228    5.94341902679102
N         4.60939490901376    3.23127024759028    2.02330708884621
C         7.65103665081318    2.62384705208138    2.29150094358513
C         4.93895259011494    2.45869509042678    0.97870384016328
C         4.23176255936222    4.48944313300064    1.80257456562582
H         3.95575541434749    5.05802208503884    2.68422720207994
C         5.36330347091839    1.06006311497920    1.27127189233226
H         5.81782258088640    0.57461681358141    0.40623491306856
H         4.51786424013728    0.45838546458032    1.62638396907518
C         8.20313040008581    2.69633394456436    1.02083890558169
H         8.11432618482221    1.85904038882465    0.34306102953200
C         7.78726824119320    3.68414071525063    3.18485155633395
H         7.38241147871392    3.61540281760202    4.20211691115654
C         4.91819092767110    2.94730287150842   -0.31964223803923
H         5.19684579096537    2.29910675151190   -1.13686711548202
C         4.53479331665641    4.26003018956847   -0.56625184840585
C         4.17928431499721    5.03491288892201    0.53552093812781
H         3.86938079954692    6.05960473908154    0.40700281111965
C         8.98767640551910    4.91277009908467    1.50366182233365
H         9.50127338716115    5.80954305943663    1.19207044396885
C         8.86389949118350    3.84754523458721    0.62730783806106
H         9.28580333603301    3.90853550595284   -0.36480676417176
C         8.46035069215781    4.82592121889947    2.78257971095803
H         8.56468890957124    5.65175514943914    3.46975657610664
C         4.51324303104465    4.82528412701544   -1.94688253881369
H         3.53782592547666    5.25854375452293   -2.16108755165013
H         4.73221566112634    4.06213316561941   -2.68874632009871
H         5.25281444858310    5.62051365513834   -2.03315054332032

