66
CSD_code = EKOROL | q = 0 | S = 0 | Stoichiometry = C28H29Cl2O4P2Re | MND = 6
Re       -0.74527052800804    8.09170089561042    2.14613099116208
O        -1.33382264660004    9.11337665269398    3.30802284801410
P         0.75509879953939    6.92840689257749    3.66870027547364
P         0.84679316591812    9.70224203733488    1.28483777229917
Cl       -2.14871617960416    8.94380055617115    0.44281213924296
Cl       -2.18732718466803    6.30018393038214    2.79842337322249
O         1.45114476380950    5.66435443923848    2.97010215177148
O         0.00588142337497    6.95184854186174    0.92865906646438
C         0.62898291044613    5.76041363832754    0.68585962991632
H         1.64542939886215    5.94960595346347    0.29592244631004
H         0.06542106856643    5.18192062216560   -0.06418875466084
C         0.73180075344396    4.92848998270014    1.97517855276304
H        -0.27612668280244    4.69027631266684    2.33249272153061
H         1.30201148772603    4.01367215563582    1.79937503682120
C         0.03351029001369    6.31990138842271    5.22021129919500
C        -1.01917778445422    7.02305234182614    5.79247651098019
H        -1.41457862810810    7.89251463731375    5.28255947931402
C        -1.56874956679427    6.57905460736486    6.98076211549019
H        -2.39376039794867    7.11474031909601    7.42537488965912
C        -1.07172259273204    5.43841896042266    7.59193099699322
H        -1.50917474375211    5.08792907791252    8.51521160647151
C        -0.02272137186261    4.73848317430991    7.01820923826939
H         0.35765750620181    3.84637743228672    7.49420662176255
C         0.53530422898526    5.17840639686957    5.83152815970313
H         1.35106077841822    4.63843505757643    5.37123260022169
O         2.28293152822194    9.00244739632559    1.47360766340004
C         3.48569476955457    9.38908433685966    0.79813523215935
H         4.25562211681528    9.47710748890951    1.57144904537075
H         3.35695090885415   10.35678930492781    0.30273755180321
C         3.87529296677053    8.32656214641088   -0.21590968176298
H         4.82618711854146    8.58412799822125   -0.67474004528735
H         3.11552904144283    8.25405071055168   -0.99110497382673
H         3.96953285377135    7.36328546605198    0.27901648065689
C         0.77390650992831   10.17939603356686   -0.46941486165833
C         0.95808997808918   11.49232166666302   -0.88353783446776
H         1.13156344637619   12.27149595529994   -0.15414449122989
C         0.90376559321555   11.79831216873597   -2.23262657487197
H         1.04290334608954   12.81948971290773   -2.55550593208986
C         0.66033880173913   10.80270739105762   -3.16373320394088
H         0.60898009201212   11.04893350623984   -4.21389549820834
C         0.46774131829114    9.49388427601274   -2.74988994967406
H         0.26123765866963    8.72149411782341   -3.47554619276693
C         0.52296710897192    9.18134701819504   -1.40493550811512
H         0.34044723177739    8.17147008190018   -1.06565524260131
C         0.85015903971824   11.27735613618148    2.17867087649460
C        -0.39375384797254   11.88455980068399    2.33647772487107
H        -1.26677715954301   11.40599401200999    1.91182994483422
C        -0.49535706546883   13.06749592339695    3.04297569674206
H        -1.45782166214257   13.53952235508433    3.16845386166426
C         0.63836149949252   13.64201414401713    3.59921678492347
H         0.55815816813880   14.56480670299343    4.15461736869302
C         1.87242463984287   13.03039294539315    3.45440166958952
H         2.75273614291454   13.47527532225594    3.89546806534314
C         1.98266224284045   11.84501903372665    2.74739760847323
H         2.94209034011018   11.35827129692110    2.64947553064951
C         2.19891293380768    7.85402243625074    4.23513387729497
C         3.50477013193016    7.40576229256251    4.10710251254762
H         3.69813417635343    6.44115185890285    3.66316550582915
C         4.54619040923792    8.20607838064604    4.54554509915506
H         5.56648568766910    7.86410258435179    4.44526329655831
C         4.28464943006913    9.44258870567115    5.11259296494639
H         5.10181670081580   10.06174056375370    5.45335950571003
C         2.97760816930382    9.89038937641729    5.23881641425174
H         2.77499457897004   10.85743493537505    5.67452416173167
C         1.93531100099372    9.10046789134886    4.79405270836374
H         0.90861378578259    9.44024052117580    4.85402107007559

