45
CSD_code = ELAWAR | q = 0 | S = 0 | Stoichiometry = C19H21AuIN3 | MND = 2
Au       12.00354227578177   10.12497006914046   -1.01753183228168
I        12.75225495687864   11.74255441869632   -2.83984188710540
N        11.75644174537557    8.46565896049453    1.60606587530297
N        10.16831859912928    8.12828882548859    0.24001869977761
C         8.98513879775610    8.17975057797978   -3.25105867829048
H         9.37302094031067    7.97940045397174   -4.23833617787260
C         8.83411605740729    6.50219782201211    1.63843619859850
C        12.97619991347361    8.91246212147833    2.27378476936759
C        12.90548798887216   10.42886703129165    2.46512589172862
H        12.84686618197505   10.93584283924490    1.50422541542235
H        13.79456650124272   10.77516469892521    2.98412342683845
H        12.03158666534051   10.69868900497697    3.05461093449182
C        11.32773470495072    8.81584211932773    0.39311410852131
C         8.01356088807450    8.70535703476360   -0.71014855762534
H         7.64334151975362    8.91615345939889    0.28271349480117
C        13.06142542719058    8.21575969403343    3.62968182154909
H        12.20424796565074    8.47283078150578    4.24580355553731
H        13.96811496506528    8.52749863748731    4.14001009219189
H        13.07944772081093    7.13654415468574    3.50469495956395
C         9.95069514237629    7.39547390011688    1.38217208097041
C         9.80541864830579    7.99552784920926   -2.15330620065202
H        10.81687979348870    7.63908771611472   -2.27925278997819
C         9.31888717693695    8.26295003381494   -0.88149044326496
C         7.67892100902203    8.62653745338669   -3.09928772335802
C        14.17757053887441    8.52841533520196    1.40784116492537
H        14.19909474159025    7.45331461640150    1.24152113522027
H        15.09757260860325    8.82063624673249    1.90571632164836
H        14.13293827776348    9.02964199495435    0.44333460995000
C         7.20474957560839    8.87905886435060   -1.81534199679798
H         6.19176106484355    9.22851719241611   -1.68147687555625
N        10.92690766401686    7.60538535395864    2.21797284463785
C         8.20544451590506    5.79774107869101    0.61411436732446
H         8.54708851263087    5.89413027239928   -0.40567764793471
C         7.15089734919228    4.95295942545198    0.90638703421706
H         6.66769487090160    4.40951244223037    0.10838712342525
C         8.40807523235445    6.32988027258675    2.95485104296124
H         8.91432152227200    6.86783326049307    3.74117916683524
C         7.35312733171868    5.48438536593326    3.23693104491899
H         7.02436162831407    5.35864565528635    4.25752519807409
C         6.71809613559052    4.79950095964905    2.21307566208479
H         5.89125928112411    4.14142605453710    2.43387255863960
C         6.78814874363574    8.83146615841573   -4.28356213838330
H         7.33447726663709    8.68911906555875   -5.21174356543020
H         6.37144331365599    9.83702868348278   -4.27392292357504
H         5.95695423963331    8.12719204373706   -4.25671116143844

