31
CSD_code = ELUREI | q = 0 | S = 0 | Stoichiometry = C16H11ClN2Pt | MND = 4
Pt       -0.39115882356901    0.97839091568003    8.25049808361810
Cl        1.57639353696737    0.23410961963917    7.56983558490754
N         0.21920278160116    1.64750367061511   10.19871950594717
N        -2.05078827067311    1.64728773670595    8.91364211925843
C         1.41201146608654    1.59313846459668   10.77103799904327
H         2.20225180029437    1.16302658409788   10.16842246452532
C         1.64386783578967    2.05345908091722   12.05565660781486
H         2.62960403554851    1.99054298778856   12.48684025316601
C         0.57956919393388    2.59171986448305   12.76636009771476
H         0.71975874895075    2.96020743330106   13.77154967505659
C        -0.66678390366468    2.65061254233362   12.17059826374397
H        -1.50495557407827    3.06401500103618   12.70722437850561
C        -0.82878173641797    2.16849550872192   10.87162941538071
C        -2.10361846941576    2.17886615379008   10.14817820260465
C        -3.30618119016525    2.68166368800560   10.64016781109445
H        -3.36316630022917    3.11352410885648   11.62531335598462
C        -4.43561606211591    2.62145335163628    9.83934675245573
H        -5.37509906241164    3.00682261599785   10.20452719337610
C        -4.35756699543161    2.06594781246114    8.57088079673888
H        -5.23208979660298    2.01665231979449    7.94364250933450
C        -3.13825042693063    1.57540228408476    8.11535938412330
C        -2.84656917426487    0.96038190703263    6.82675974805083
C        -3.79366954238684    0.75916507976881    5.82449949907685
H        -4.81926546752130    1.06550417178387    5.97186626801263
C        -3.42082311022426    0.16334466390346    4.63582819789141
H        -4.15431231168759    0.00595799456656    3.85851921542699
C        -2.10599565979485   -0.23157675563430    4.44134153393695
H        -1.81949643816670   -0.69922197330088    3.50996173729211
C        -1.15594860252828   -0.03415695849793    5.43202556997606
H        -0.13647303018197   -0.34778621502953    5.25909135025287
C        -1.49634945070861    0.56074634086533    6.64047642568856

