68
CSD_code = EMAYAS | q = 0 | S = 0 | Stoichiometry = C28H28ClN6O2P2Rh | MND = 4
Rh        6.41303651912838    7.14344374689786    1.11188371709264
Cl        6.66611833861343    7.77510128762757    3.26840180353311
P         4.26008938710167    6.98900238882497    1.66040820424153
P         6.37738055813563    6.46395481016971   -0.98501050364012
O         5.23157583921209    4.99303060452618    2.11373379309703
O         8.40909164425478    7.45946556662864    0.89496118413364
N         3.71294142102427    6.70413881521128    3.27094260534626
N         3.08831424391243    6.10550294840464    0.79278208242827
N         3.53873883913916    8.53579598906731    1.43640404837128
N         5.39380736238406    5.23572345352242   -1.62961533601873
N         6.22355927601784    7.65551132232922   -2.19747942857467
N         7.91312316703228    5.80033741272398   -1.47237388717352
C         2.95289753163485    7.47902178904320    4.08395871806810
H         2.42484541208693    8.33897799159316    3.71947629991390
C         3.00061219079851    6.97646259015789    5.36368030927692
H         2.48160582957110    7.37403048267574    6.21372821180202
C         3.85307619584716    5.86734145091159    5.35162437841340
H         4.11447240572203    5.24781598071847    6.18655875354185
C         4.29384617174864    5.71806516662590    4.04898989092526
C         5.20836085445684    4.87744982681673    3.35174488124381
C         6.14429556231880    3.98441610832003    4.09800556008583
H         6.60581224838400    3.27105724221917    3.42032526220709
H         5.62732616800689    3.46867518944439    4.90229136413162
H         6.92189676416648    4.61049436195931    4.53605889647982
C         2.40593223976452    4.97474031043659    1.15548293158201
H         2.50945326856225    4.55537137677932    2.13732681235787
C         1.63902813639367    4.57183303673919    0.10492107783560
H         0.97866217723828    3.72746750902478    0.08579650363737
C         1.86818276077794    5.47913899324191   -0.95549536285994
H         1.41792607530099    5.44831666906013   -1.92774849445447
C         2.76697280913301    6.39821044550846   -0.50815261003075
H         3.19485658148960    7.25334931391332   -0.99911895680558
C         4.29383431087266    9.68213362510173    1.37678002219506
H         5.36615566019659    9.63313807839642    1.49936530981891
C         3.46793610656647   10.74798509433117    1.19281422278531
H         3.75974738865131   11.77589479916242    1.10611968667660
C         2.14615841938794   10.24382833448048    1.13441799582997
H         1.25184611940829   10.81951433180205    0.99514512182673
C         2.22027536017465    8.89279068281855    1.28910452640311
H         1.44175840550924    8.15386750517967    1.28947055337547
C         4.70335592862849    5.15482547633786   -2.81703269370948
H         4.70406225425567    5.96420879506656   -3.52023901116961
C         4.07794051124953    3.94847682750486   -2.87171213581184
H         3.46458841065914    3.58787537041440   -3.67390488331602
C         4.38113617801916    3.25710406277336   -1.67356771207560
H         4.03865949006992    2.27801157881817   -1.40360684827061
C         5.18095737321959    4.06873517584265   -0.93287853991893
H         5.61542093292691    3.93705447853952    0.03915766821038
C         6.63411477405468    7.66397704281726   -3.51105245508033
H         7.15421794995481    6.82963988787219   -3.94054714669764
C         6.28583793252087    8.85538375038548   -4.06867405599811
H         6.47185779237519    9.16035593284261   -5.07984762517992
C         5.63758597036365    9.61938879941349   -3.06787339267594
H         5.24057142589797   10.60833392182795   -3.18142420983065
C         5.61933371101402    8.86469610374288   -1.93745349783595
H         5.23481819436718    9.07895665406037   -0.95555654529744
C         8.13436827772646    4.93392322759274   -2.49942204071608
H         7.32176690995252    4.47576953955749   -3.03042041346975
C         9.48412173286255    4.76208496837404   -2.67333979653581
H         9.95253685630058    4.13002837868364   -3.40152056486059
C        10.12680933427889    5.56046907132014   -1.72232319008331
H        11.18574500484718    5.65058027792924   -1.58423360556366
C         9.14425093539655    6.19777032477610   -0.97697051979765
C         9.31667490976409    7.07045999631879    0.15465771128676
C        10.72495693953878    7.51971562584847    0.45289783608849
H        11.16491554937422    7.99845605864032   -0.41863106322868
H        11.33917434175322    6.66395555238512    0.72490314283377
H        10.70227062964173    8.21926648801375    1.28460543928012

