33
CSD_code = EMIFOX | q = 0 | S = 0 | Stoichiometry = C15H10ClHgI2N3O | MND = 3
C         0.97207446855622   -3.17930605058743    2.76226959309796
H         1.49099036540572   -4.02466945590327    3.19105808498625
C         1.14085388606212   -1.89438724515741    3.26227915679869
H         1.80469994730803   -1.69763925373514    4.09235580635082
C        -0.31667911078537   -1.10486080703528    1.71036064409818
H        -0.86204005149151   -0.28362866355939    1.26437887273259
C        -0.47071375711514   -2.39581960250020    1.20451103742355
C        -1.37519836238317   -2.63676720814385    0.02832402605563
C        -2.14310079601111   -4.59212573873258   -1.29506700585911
C        -2.93474315047686   -3.87921085100213   -2.16855025966965
H        -3.00337559545929   -2.80860314405287   -2.07441284135131
C        -3.65274543130099   -4.52584928643762   -3.17544745110789
H        -4.26564577585050   -3.94554742293341   -3.84659820074627
C        -3.57951354427754   -5.88616662411433   -3.30857130167524
C        -2.78211426696887   -6.66874137401789   -2.43841366320433
C        -2.69756878563508   -8.07060655440791   -2.56141356597718
H        -3.26025427604975   -8.55319827409932   -3.34511196813461
C        -1.92313910443718   -8.80918390013878   -1.71226997305915
H        -1.86683617691420   -9.88180319105947   -1.81735862829429
C        -1.19726572246106   -8.17132657873460   -0.69977847695823
H        -0.58557192720615   -8.75835398834954   -0.03107523126370
C        -1.25830598772274   -6.81211101024206   -0.55402294350389
H        -0.68172044575712   -6.36101260224236    0.24114573764460
C        -2.04670167822028   -6.01311630885186   -1.40991044427318
N         0.17381615470945   -3.42921859809976    1.74065335999235
N         0.48991522075764   -0.85638944733324    2.73618976790861
N        -1.42626392380831   -3.95206238810650   -0.28765142750400
H        -0.85158723555384   -4.53673042302831    0.30990399319087
O        -1.95129962872948   -1.72064326342984   -0.51993343117875
Hg        0.80598674604624    1.54986561186519    3.66780789931367
Cl       -4.48448411788201   -6.64982348897833   -4.56714107685789
I        -1.31490554408851    2.67251121833302    2.66587302185460
I         3.01223760773834    1.11202591481958    4.98741688916721

