57
CSD_code = EMOQUS | q = 0 | S = 0 | Stoichiometry = C29H23ClIrN3 | MND = 6
Ir        5.33990155016877    7.77787529636039    2.01457984825946
Cl        7.66511990441776    8.56671710795652    2.18212983399969
N         6.17076144316071    5.98799245506150    1.70130416361254
N         4.48974300521436    9.54925164078446    2.40060810159339
N         5.26933459005277    8.46748272227789   -0.15523995109432
C         5.40284849469526    7.12084290085217    3.91373703640439
C         4.96962385509960    7.76228457809634    5.06817205672286
C         5.14701607815087    7.18702471251455    6.31500556992964
C         5.76394603882332    5.95094138026961    6.43838517384382
C         6.20910906010566    5.29199045503803    5.31179300582897
C         6.03402942664440    5.86724515036621    4.05304148538752
C         6.48557109435065    5.26944685658053    2.80737321286704
C         7.20278774966572    4.07778672208367    2.70239439244825
C         7.60029421036986    3.61657879818495    1.46424291997540
C         7.26836840828321    4.36243271030629    0.34067162097773
C         6.55840651823008    5.53394492801367    0.51054786954692
C         3.40146025722965    7.23138933713333    1.94081074775803
C         2.85549049939953    5.97456865508799    1.69915563040844
C         1.48646869694763    5.78814213328014    1.60227286436251
C         0.62080647803040    6.86216292617228    1.74699117147395
C         1.12725081012527    8.12144928462164    1.99574353080698
C         2.50506351396703    8.31151311526933    2.09564337267441
C         3.13598503751316    9.59681659508737    2.35862048640707
C         2.46345424515084   10.80038060388214    2.56335845869727
C         3.17814949563441   11.95544950566920    2.81526371089033
C         4.56386022332740   11.88602471813160    2.85926453639816
C         5.17378522076302   10.66436834527748    2.64762722085180
C         4.25779527195809    8.19251865675828   -0.97618997565604
C         4.13796469613474    8.74752146953604   -2.23348874495835
C         5.10535487297831    9.64628823537079   -2.69352562050576
C         6.16824737467798    9.91135308504737   -1.82831081099574
C         6.20651767060162    9.30769293899996   -0.58655538446421
C         4.96687960030089   10.23995920789794   -4.01635646586484
C         5.72217152203101   11.20913020888755   -4.51950805281052
H         4.48607698181288    8.72775794227323    5.00549190076342
H         4.80302713911879    7.70548476561116    7.19906161155634
H         5.89957839799593    5.50774590174878    7.41422202328857
H         6.69411633027539    4.33227210426696    5.41416486885330
H         7.45440286823606    3.52661056743115    3.59369636975570
H         8.16168493881884    2.69916342716363    1.37156924398161
H         7.56055338394027    4.04595640270988   -0.64790266882757
H         6.29323151682999    6.13739643745759   -0.34733432818662
H         3.50687812675848    5.11814780705641    1.58358947794506
H         1.08912870601084    4.80051608423979    1.41334756372885
H        -0.44633372755340    6.71304014586290    1.66890084630559
H         0.44737169314259    8.95322758440772    2.11021896899518
H         1.38628070586537   10.82575792138999    2.52796482507808
H         2.66642576954567   12.89231956252210    2.97784143190658
H         5.16216532786823   12.76071329002592    3.05706870273759
H         6.25083835702759   10.56082107247819    2.67844573625945
H         3.51528773952343    7.49807275735831   -0.60731289881212
H         3.29417984523714    8.48815488238462   -2.85533192745472
H         6.96703257821504   10.57576254387764   -2.11471560181225
H         7.02663211126264    9.48214428421626    0.09935319370399
H         4.15430752286002    9.83711164551143   -4.60847637263916
H         6.53351651704623   11.65797353622173   -3.97253231239208
H         5.54795025595883   11.59718189693416   -5.50819367051519

