41
CSD_code = EMUQAG | q = 0 | S = 0 | Stoichiometry = C14H21Cl2N2PPd | MND = 4
Pd        7.27053272007055    6.74353585402751   -2.56459313943750
Cl        5.57367328872686    8.06500520698483   -3.24259818920233
Cl        8.70788249920474    8.43282138697657   -2.73823275495707
P         8.92281840255642    5.27412576247394   -2.15998563015334
N         5.90907303464055    5.04349094024041   -2.31992851687838
N         6.59917854134201    3.86502600025268   -1.98800321683075
C         5.05025420411549    5.46358563246012   -1.20821814619291
H         4.27591405537650    4.71836938396788   -0.99276665045791
H         4.57681735419417    6.40990991992676   -1.48347823647284
H         5.66605113596647    5.61294344355137   -0.31440882606200
C         5.13335589777304    4.84539370266622   -3.54574800397503
H         5.79656976049415    4.47465556282625   -4.33019485982970
H         4.72419598685498    5.81236848999786   -3.84825881061252
H         4.31578218583848    4.13244110718584   -3.39551320415336
C        10.44283416546232    5.02107785125695   -1.22429158255797
C        11.48613230602038    4.91704372767063   -2.07585378149118
C        11.12923890424080    4.97963904507814   -3.49977391641172
C         9.80433312612862    5.09119279766072   -3.73009870112428
C         7.96394304223220    3.77755434382970   -1.89549829975653
C         8.28209218176841    2.47944181040250   -1.55867507305204
H         9.27210806109700    2.09889006094815   -1.40691003129741
C         7.07583457983887    1.77054174718357   -1.45763836457388
H         6.96404855114176    0.73305210866443   -1.21204764508170
C         6.05749719027783    2.64826483812525   -1.72780715333706
H         4.99986646838560    2.47525471158337   -1.74915196216141
C        10.45280510753688    4.99425929469583    0.26931216102815
H        10.98813252208455    4.12192514773379    0.64318322029015
H         9.43051473504361    4.96058561387661    0.64506995215702
H        10.93331523355860    5.88752917442903    0.66924539366651
C        12.90855759386539    4.74970661258182   -1.65862144057768
H        12.99277967060937    4.68708247373769   -0.57799477910843
H        13.49859902440988    5.59821319815145   -2.00262975812231
H        13.33274243886108    3.84794058737966   -2.09834098663303
C        12.19420381462385    4.91282179684919   -4.54245611598389
H        11.77213520275858    4.98945662031656   -5.53966663744881
H        12.73673989124598    3.97095910004372   -4.46920902593844
H        12.90782195266986    5.72320460606682   -4.40170840399577
C         9.06127815513235    5.26998338439795   -5.01680075515080
H         9.70129458237350    5.67717721893322   -5.79629482420051
H         8.22421548839099    5.97612984058893   -4.85682264359266
H         8.65313694308108    4.31959989426623   -5.36679066032869

