26
CSD_code = ENORUV | q = 0 | S = 0 | Stoichiometry = C6H14HgI2O3 | MND = 5
Hg        2.23648112264769   -5.13144737960456    8.10329635398764
I         1.99322576408184   -3.87800098462998    5.83817700656261
I         2.11166144016466   -6.58608907852751   10.25674754822725
O         2.08540935156255   -2.75486127123718    9.54919806939082
O         4.58684444056016   -3.89279623469083    8.79548472754646
O         4.62777015063548   -6.32237767100301    7.29863400933712
C         1.04973669607873   -2.56052108413260   10.49036797566124
H         1.23907393247777   -3.12739897785337   11.40840481972484
H         0.12879997849856   -2.91089247680651   10.02835916282275
H         0.95166155851797   -1.49792302038198   10.73669786877611
C         3.33056108398944   -2.28333900520829   10.01899020280940
H         3.61735487358494   -2.82624026784924   10.93129161391168
H         3.25851726816656   -1.21037322355345   10.24660326603363
C         4.38987746754897   -2.50213769579673    8.94859967170951
H         4.06021674957480   -2.05347371185051    8.00135751233771
H         5.32976613337589   -2.02667200329432    9.26210298226413
C         5.61438428775539   -4.22010444610739    7.88277017920611
H         6.55675263488697   -3.75376015838087    8.20264187043989
H         5.36191067423562   -3.86285715355443    6.87483663350384
C         5.77803883850599   -5.73280168526605    7.86686389633558
H         6.66281180550466   -5.99730753777275    7.27069727381148
H         5.91640124635693   -6.09534000562315    8.89590230666342
C         4.72865301109784   -7.72961833204146    7.22377709969657
H         5.60223135016319   -8.01916724004378    6.62968850549799
H         3.82440465948632   -8.08871288335487    6.73584696687277
H         4.80915348054146   -8.17338647143480    8.22236247686930

