31
CSD_code = EPATUL | q = 0 | S = 0 | Stoichiometry = C14H12Cl2N2Pd | MND = 4
Pd        6.57478793239403    2.02513635310528    3.75851752861335
Cl        6.09731582488969    1.90552978133927    1.59248054850143
Cl        7.84829307732284    0.23540135940982    3.43336336138285
N         6.66847913435768    1.97080480932822    5.82569016444924
N         5.14943325974931    3.45699310651643    4.19213025082494
C         7.51356681528562    1.38479282288674    6.66114338652735
C         7.09733520598663    0.98806575680664    7.94533734198097
H         7.80292054036661    0.48175184383928    8.58543774428177
C         5.81854619255842    1.23881491826218    8.37175801792701
H         5.48419286358596    0.92653633370245    9.34988482546106
C         4.94195231386368    1.94764228993502    7.52973962643023
C         3.62770230858773    2.34199172356791    7.90374406468122
H         3.26130682289258    2.03633532952718    8.87253419057541
C         2.86077965853548    3.09856934045801    7.07879014109772
H         1.87019638954937    3.40915528457428    7.37599208819951
C         3.34331698128862    3.52243743811285    5.80985896446452
C         2.63421330343245    4.37613383919224    4.94487679189903
H         1.64532498203339    4.71272446425931    5.21850693230735
C         3.23024996797676    4.79491778379396    3.78309172505318
H         2.72642130019654    5.48193487683303    3.12122959793959
C         4.51125999359601    4.33260246145030    3.42987730665589
C         5.42266220383455    2.29167068345827    6.25010944552610
C         4.61286502955300    3.08678510796382    5.37939369689085
C         8.91794593581451    1.18591575082059    6.21549251238617
H         9.15717204978554    1.89783622211008    5.42208048277954
H         9.02978624461107    0.18764528592669    5.78978700215591
H         9.60841517222446    1.29507375309790    7.04848221669909
C         5.19762622039971    4.83580154722755    2.21022052504071
H         6.27518459013930    4.67880118464106    2.30256804260739
H         4.97726900053352    5.88888698843291    2.05008301955561
H         4.86517868465639    4.26881155941864    1.33989845710593

