69
CSD_code = EPUKIK | q = 0 | S = 0 | Stoichiometry = C26H32Cl2N4O2P2Pd | MND = 4
Pd        9.54108050135935   12.81285466377097    8.65678439590374
Cl        7.74547414149203   11.50401377283496    8.47881125048014
Cl       10.16665812382761   11.98958587758161   10.84809491323270
P         9.18815597581520   13.69050752348548    6.63201669959945
P        11.71236212011691   13.10893325652182   10.30954375077596
O         9.93574825367355   14.95852110076319    6.49218061274409
N        12.05421269403671   15.79626427665405   11.12705912662842
O        11.68893009037374   13.38938735753140    8.85941225081606
N        11.24002927967751   14.40005012622540   12.64063527889137
N         6.53919511355275   13.72361725452893    5.57204325905464
C         7.41391082435776   14.03377839985601    6.49331335963767
N         6.84562940372699   14.77116383466201    7.49000655092825
C        11.45512479848144   15.59700737768435   13.22270385175537
H        11.23442877928412   15.75670587541016   14.25880848390652
C        11.58479891035621   14.54459800519260   11.37689144066636
C         8.04901843273346   16.59586061833755    8.52576084521842
H         7.94250226188955   17.15476140047405    7.60873645974938
C        11.96775835007183   16.47435208253962   12.30250016024217
H        12.25244147643297   17.50344457522882   12.38311465519772
C        12.54106804987668   16.30511313711676    9.90351674562667
C         8.59135337900581   11.37814170935525    5.13326393157024
H         8.93445752375281   10.62076003274539    4.42933566004476
H         7.71626961432302   11.87763086663542    4.72602942790972
H         8.30105184647600   10.88768869888976    6.05951001410537
C        13.79092866283714   16.91374569697677    9.87762566021176
H        14.37457523900448   16.98246448692345   10.78485232101892
C        14.28107110377556   17.41052049182831    8.68400167377426
H        15.25396563931780   17.87831602633939    8.66163098575486
C         9.70046001057965   12.38567781702119    5.38809343740350
C        13.53061547269503   17.29933585516436    7.52410726399196
H        13.92188241773127   17.68164247524464    6.59355485167385
C         8.83054979983986   16.41598581473940   10.78918029890778
H         9.31722432266411   16.85594486805662   11.64784224201873
C         7.66726717921988   14.56161983079308    9.78062445231874
H         7.14618648262349   13.61120102913980    9.88132740144199
C         8.32560753003994   15.12653609149202   10.86981974628573
H         8.40587544972222   14.57290579552025   11.79656528978420
C        11.77872463402522   16.20950075519476    8.74951441049786
H        10.79964002445266   15.75460839321668    8.76432638847053
C        10.07583039283535   13.12463360803102    4.10986530123649
H        10.45244879345432   12.42814400500793    3.36181714701172
H        10.83913808254723   13.87199265954400    4.31725372810244
H         9.19853453833187   13.63094328244118    3.71147836691730
C        13.08976475316184   11.66585832003675   12.25419525150716
H        14.04124714091249   11.26109098088750   12.59451853339975
H        12.33614112464159   10.88617869187849   12.33924859390119
H        12.80442443346914   12.48678980270689   12.91027652813461
C         7.52895834937309   15.30955630990285    8.60331386976239
C        12.28244532225223   16.70157604942022    7.55907092148022
H        11.68307056137764   16.59620897415768    6.66970516374991
C        13.21727339709064   12.14508805772964   10.81594803073472
C         8.69214290269044   17.14749446552428    9.62123503806933
H         9.08473462069332   18.15159731024249    9.56117600356750
C        10.91821077275497   11.71283715187847    6.02922111210198
H        11.38195653578187   11.00966046490349    5.33792009858480
H        10.60708519366424   11.15898082033639    6.93505340586419
H        11.65357447375863   12.47348989573394    6.30815873749811
C        14.38961194777669   13.10699999289267   10.64902837306472
H        15.33393169980930   12.57695257732774   10.76055243547973
H        14.35007633262126   13.89494264938885   11.40052071906116
H        14.36600730908287   13.56708316541616    9.66055098946817
C         5.36516137390569   14.26767201023569    5.97386889182659
H         4.47694690254004   14.15371717171467    5.38521369088203
C         5.53123835072900   14.92426716700180    7.16053663656511
H         4.84937372241945   15.46729031851773    7.78289765423412
C        13.31874154553300   10.98269893808316    9.83446974498138
H        14.19685996477840   10.37736891335548   10.05177429870501
H        13.39862892235730   11.35711341976744    8.81432877761947
H        12.43750662643253   10.34302557423563    9.89966240817733

