57
CSD_code = ESEVII | q = 0 | S = 0 | Stoichiometry = C18H32Cl2N4Ni | MND = 4
Ni       13.21678988690785    4.38459666984815    7.78599382298573
Cl       12.63280673427415    5.44146405898082    6.04045866382962
N        10.82917925188694    2.76890265027323    7.46525915475566
N        12.49659224851309    1.93278281316006    6.39990118659767
C        12.13896365512280    2.93644855402809    7.21811125162305
C        10.36190477227735    1.67357558659313    6.79250305155711
H         9.34213666365286    1.35289878635202    6.83858568394062
C        11.41222054280919    1.14701745902022    6.12109469696103
H        11.46285039996664    0.28995458785039    5.48259214411525
C        10.05133934433949    3.67049797638128    8.29072751245166
H        10.79218399613097    4.31533812705007    8.79241407893307
C         9.26897809212866    2.90115493692531    9.34904748308113
H         8.49456090779452    2.28711779177429    8.89486303062334
H         8.79431955728234    3.59973450615423   10.03278451242311
H         9.93948672331529    2.26158809879539    9.91851906636589
C         9.15441912993031    4.53396570721714    7.40729136913376
H         9.76333570299781    5.06806005554290    6.68052030710857
H         8.61740412792787    5.25813320970251    8.01390701442390
H         8.43164508311349    3.91841045086868    6.87572054865162
C        13.83579781398861    1.77316680343069    5.87012855600951
H        14.46505635761816    2.45812683599704    6.46212432715181
C        14.33472463368044    0.34658561924642    6.06978008368309
H        14.23855363040840    0.05857623457348    7.11418991385593
H        15.38266374863174    0.28345667309997    5.78928960006419
H        13.77395286672909   -0.35462322571549    5.45587580211388
C        13.86524762125878    2.20664465401288    4.40650743465130
H        13.22554536527555    1.56544994115282    3.80352455446832
H        14.87939354612813    2.15130283955369    4.02016865243250
H        13.51320420061201    3.23297686349003    4.32248838631459
Cl       13.80131658038204    3.32719990684222    9.53103031880408
N        15.60515074196221    5.99947062376422    8.10694893136201
N        13.93831936137623    6.83495015081500    9.17373060682790
C        14.29560242633193    5.83153437900035    8.35508676528956
C        16.07269990798582    7.09462464441619    8.77980116657012
H        17.09235204281023    7.41556278950741    8.73304036820996
C        15.02274802189184    7.62077830603201    9.45210495844839
H        14.97236904279605    8.47767939069201   10.09084194489016
C        16.38253987604728    5.09847304982818    7.28040962908330
H        15.64147300005986    4.45376592286381    6.77887594129878
C        17.16414082903707    5.86844615417035    6.22196647153935
H        17.93874169558755    6.48238798309687    6.67596513730345
H        17.63850908175154    5.17027753818192    5.53760796423330
H        16.49320170133651    6.50818415188443    5.65319484637199
C        17.28011407758728    4.23472204621888    8.16288667827711
H        16.67171159589227    3.70027235283594    8.88983073001767
H        17.81678869451623    3.51087155520525    7.55559700917164
H        18.00317798074068    4.85012136672991    8.69424652600972
C        12.59935201253229    6.99427699553030    9.70420813897150
H        11.96993190283646    6.30922591083484    9.11250302334334
C        12.09996015684286    8.42077964326600    9.50505298223719
H        12.19540576490337    8.70898758920522    8.46062958948779
H        11.05217951308162    8.48364118169494    9.78621299182632
H        12.66095529384762    9.12201205377075   10.11872475576605
C        12.57085965798237    6.56053604114463   11.16775166689122
H        13.21081921004029    7.20173311631075   11.77045825464790
H        11.55692297827234    6.61564659160419   11.55467128637271
H        12.92310024686518    5.53423329919442   11.25134942644085

