58
CSD_code = ESIQUT | q = 0 | S = 0 | Stoichiometry = C27H20ClN6O3Re | MND = 6
Re       -3.79326701022712    9.28116814784925   15.83496791037442
Cl       -1.90222511384362    9.86052426392379   14.51361996707611
N        -3.82456568245585    7.57551342584762   14.49242678463666
C        -5.43590834947216    8.76112001296069   16.72905120959420
N        -3.41199606385446    6.31908869357147   14.49890023131351
N        -4.79556653076976   10.00812928811320   14.02569951886362
C        -2.61190368445411    8.56827626710845   17.20853790141314
N         3.28928779471648    4.73185208972319   14.67137113229134
N         4.86244763148048    4.84792581669419   10.47982057409275
C        -3.70443033370233   11.02062527196404   16.70206329762932
C        -4.14997286276060    7.88097542923846   13.23225188740495
N         3.73670522280529    5.63277701406232   13.81308757936953
C         4.03675951615832    4.96977730058337   12.69906445617790
O        -3.60675912502869   12.07927476382177   17.12415115531465
C         1.30114389239540    5.27318866275176   15.93325986302251
C         4.57589868292532    5.62658960585704   11.52243670087170
C        -0.64623122630089    6.53908522545714   15.30488335686974
H        -1.06534156330362    7.44732879086068   14.89710723034318
O        -1.83734462082493    8.17320985396483   17.95657949839183
C         0.72734193516161    6.41300032096371   15.38612433508198
H         1.36089143445488    7.20734252815840   15.02249111269594
C         0.47693620170465    4.25349078057305   16.38705102332173
H         0.90816963609495    3.36059275849418   16.81641879661026
C        -4.99114078930493    9.63177840742825   11.66828889676969
H        -4.85729715604933    8.96154525095679   10.83457649546301
C        -3.92229547528974    6.76628379681401   12.40844264505567
H        -4.07773814785750    6.68585730931269   11.35306444749358
C        -4.66123971648260    9.20792986587503   12.95334473620836
C        -1.46927806603862    5.51664479834494   15.75910853679831
C         3.27463383177276    3.48944746446248   14.13992721720397
H         2.93570275582696    2.64281597491713   14.70268146543353
C         3.75869764297030    3.59551471073695   12.86151190989126
H         3.90675673247582    2.82715742015142   12.13327516402134
C         2.80304296113617    5.13139591115300   15.96849916940363
H         3.26924898483314    6.09079930571919   16.20331329431748
H         3.10428147487377    4.38466933622592   16.70834884973737
C        -2.97421349875614    5.64569877371130   15.69322971665148
H        -3.43668233984075    4.65423852453113   15.72659837729246
H        -3.33757436381368    6.22804951994250   16.54933300974191
C        -3.44820700720617    5.79630474181221   13.25854791050617
H        -3.13882403081301    4.78912152457196   13.06520586714933
C         4.77760038854743    7.00959815547953   11.50115220947696
H         4.52550634093040    7.58995992072728   12.37370219941894
C        -0.89805744028055    4.37278761444064   16.29795666850207
H        -1.53032434739221    3.57324197293848   16.65694081498785
C         5.29478566560905    7.58593699809467   10.35772514693182
H         5.46330174988053    8.65268860852922   10.30711189522646
C        -5.46753718957433   10.91543420135740   11.48640473095628
H        -5.71700088693623   11.27403281573347   10.49940674997777
C         5.59471513935392    6.77225584436124    9.27379136061638
H         6.00143036463443    7.18181347022424    8.36190676237240
C        -5.26731601918637   11.23569979691846   13.84212237359210
H        -5.36980986295615   11.84971626086922   14.72761301956812
C         5.35632989094442    5.41162768906606    9.39448288446729
H         5.57223913170572    4.73318165450437    8.57801830004615
C        -5.61474241853434   11.73230226069014   12.59813841776323
H        -5.98392342051632   12.74082303622978   12.50579087122415
O        -6.41924065952985    8.44319075063698   17.23507236301369

