51
CSD_code = ESUMIP | q = 0 | S = 0 | Stoichiometry = C22H20ClMnN2O5 | MND = 6
Mn        6.58574713305392    8.26970666279500    7.12730951611133
Cl        4.96474648815340    6.80724220586024    7.48604457619576
O         6.76905124019137    8.66551898305370    8.79968714693128
O         7.74502814186575    7.06494987768667    6.68493990961669
O         7.63927271901405    8.27356590323280   11.27598180817717
O         9.53287475644701    5.16488226165928    7.16939621293874
O         8.39717160445450    9.73868699714981    6.85072299552422
H         8.60134805778319   10.04368754977685    7.74228054845189
H         9.12968114406698    9.17474596522370    6.57696097769569
N         5.19049402357466    9.77204284960880    7.06482863405110
N         6.07801278875368    8.31429859387956    5.13933281994878
C         6.08788788957631    9.16463238128279    9.75872446052684
C         6.48902989342850    8.99318100306233   11.12377946741184
C         5.72874931756463    9.52494960774830   12.13193196078848
H         6.00366901457264    9.38173355400542   13.16478792621464
C         4.57027888839125   10.26909479892275   11.83952008750147
H         3.99703006877095   10.67380561986284   12.65917550209304
C         4.18005402763065   10.48056172674205   10.55194091555926
H         3.29701222841889   11.06123266447213   10.33200078020144
C         4.92173903533301    9.94581667487026    9.47183709397843
C         4.54591744669341   10.18764471008941    8.14028006073060
H         3.64216342985908   10.77664019621450    8.00187018507120
C         4.77188124429712   10.15986851959421    5.80669171762176
C         3.96188151324182   11.26016382193575    5.51271965753612
H         3.61748431747924   11.91054358989990    6.30195105932343
C         3.63215644742798   11.55418817399278    4.20689499463075
H         3.01405572315671   12.41238158101583    3.99135919983054
C         4.11210895730570   10.76704645259148    3.16661407541371
H         3.86576649343459   11.01594017493157    2.14565227924126
C         4.92289922630507    9.68354516189829    3.42936192681647
H         5.32280422401618    9.11298973180502    2.60531435868953
C         5.26128460089083    9.35657779769794    4.74529732952294
C         6.30413434839476    7.29885310343472    4.32564422448311
H         5.77474833986087    7.27377007884461    3.37587340638734
C         7.18242058094645    6.22927196654628    4.56598298688403
C         7.38212799429624    5.21350178597451    3.60114285922477
H         6.82191885760415    5.26204880045595    2.67966468356563
C         8.26080861625834    4.19793269035047    3.82801703383967
H         8.40392692389752    3.42251515970231    3.09149467263368
C         9.00496406912539    4.13763800969527    5.02123298585556
H         9.69147594887431    3.31785917838708    5.16104323310038
C         8.85750577958284    5.10069815951825    5.98458105939356
C         7.91439774828681    6.16299430824370    5.79558925100638
C         8.02645896155107    7.91703525252382   12.57867987753463
H         8.91414899600839    7.29684445985939   12.46445679026957
H         7.24485048018381    7.34213221426351   13.08488195892016
H         8.27539306326967    8.79891581179036   13.17941370729898
C        10.36351214582705    4.08546806737528    7.51422752346107
H        10.73900510767729    4.30766475287485    8.51188700644644
H        11.20765430440166    3.99106236863919    6.82203707647870
H         9.80656564879967    3.14372803895782    7.53765947886938

