41
CSD_code = ETUWAR | q = 0 | S = 0 | Stoichiometry = C12H22I2N2O2Zn | MND = 4
Zn        6.05716789174245    9.44576662466442    4.28955150750453
I         7.76059953077410    7.96226602319291    5.42295119830803
I         3.67223440268805    9.01610782460528    3.57167907558213
O         7.20217055673039   12.54837074515041    6.98754472854611
O         6.69299648335723   11.33134832926737    0.51235590127342
N         6.11145736561222   11.15561734567872    5.64126534136415
N         6.87515285762076   10.18463052993538    2.40800927354892
C         8.45592914414245   11.70420252324710    5.13276989513560
H         8.25998280265830   11.42770442529015    4.10179014991236
H         9.10327713334054   10.94931251670069    5.58093424578736
H         8.96569548948479   12.66292349937455    5.18448744993049
C         7.19661510362664   11.77215410147648    5.90712376028505
C         5.92859018756324   12.42250368227780    7.61158259395239
H         5.48204724548206   13.41619706705638    7.69408759439840
H         6.07242656913939   12.00573487540438    8.61162276073223
C         5.12403987183416   11.47620953632017    6.67950465645325
C         3.91997912077909   12.18748306321664    6.06384673463798
H         4.23107485365393   13.09007917801130    5.53956481365180
H         3.22155648215811   12.46193576126394    6.85010695555844
H         3.40636376484998   11.53548897869807    5.36339608960993
C         4.69014475844339   10.20762261000046    7.41010349394185
H         5.55535113424655    9.66577991977011    7.78868364788919
H         4.13015627363126    9.55393593656640    6.74636321271902
H         4.04789957562690   10.47109166272611    8.24689151465318
C         5.43080562271439   12.17676268920088    2.36091526008686
H         5.55106371753834   12.24746013518852    3.43726457002569
H         4.40818455204144   11.86611299281891    2.14279221432327
H         5.60087999457795   13.14154304544840    1.88994800053202
C         6.36320989839998   11.17808701621028    1.79206817056180
C         7.53832020782590   10.24294690600784    0.15471363735547
H         8.48109944640787   10.64470025593147   -0.22369408553868
H         7.04726885137306    9.66737246753843   -0.63379810600688
C         7.71317050264792    9.43107729417859    1.46691438433890
C         7.19095515226565    8.00429013145995    1.31559102251544
H         7.31617948888671    7.44866342652008    2.24135515252272
H         7.75005255368529    7.49307024076974    0.53567817296656
H         6.13569455750701    8.00626527131362    1.04745599202176
C         9.16752746598901    9.43009992551026    1.93536454047587
H         9.26332787071409    8.91670002493062    2.88759057737509
H         9.53849488122266   10.44810611625239    2.04671852030656
H         9.78215663698735    8.91127530087219    1.20430538083378

