52
CSD_code = EWIVEM | q = 0 | S = 0 | Stoichiometry = C21H23Cl3FeN4 | MND = 6
Fe       -0.06314685430615   -0.11738503764661   10.47806102627554
Cl       -0.86551831799733   -2.06862202307157   11.10084983450471
Cl       -1.76604921598861    0.29504870150227    9.15030067512115
N         0.91772092575664   -1.07492035926124    9.13229737958529
C         0.62253501946755   -1.17341175541120    7.83459555085399
H        -0.24139379708073   -0.60977408610106    7.51677190481485
C         1.33627284997185   -1.96219101597071    6.95366428291967
H         1.04178790726966   -2.00693042264970    5.91770039421030
C         2.41863340322316   -2.68996964279172    7.42403787919947
H         3.00236971945164   -3.31444794894445    6.76604591944604
C         2.72127779898444   -2.60604177984518    8.77564899802809
H         3.53919142857283   -3.16951264607531    9.19827573777562
C         1.94759583926932   -1.80640628649001    9.59590234686754
N        -0.95752248829382    0.80693605466755   11.88546048042527
C        -1.53278492730293    0.26294417239383   12.96147699593444
H        -1.46741032824762   -0.81292337109007   13.02149194279597
C        -2.19998733911403    1.00341439297377   13.91730722328141
H        -2.65329663809956    0.50384015341132   14.75821566126272
C        -2.28179625142156    2.38006228327726   13.77166453185629
H        -2.79986822898610    2.99017449714500   14.49482037202945
C        -1.67997589335344    2.95281831435737   12.66023849690149
H        -1.71720994923766    4.01869106543547   12.49431021529541
C        -1.03772944519510    2.14190775799462   11.74334866023697
C        -0.39974952185283    2.67570092413583   10.49705958661073
H        -1.14326196649037    2.60098932774877    9.69816142857783
H        -0.08344113072052    3.71947777939727   10.61826323507595
N         0.71187067160601    1.79615678661532   10.13250437426779
C         1.81160979246638    1.95877232330263   11.08647633785720
H         1.37839483177760    2.18500225238088   12.06385806590102
H         2.46920043978947    2.78993103515803   10.80497288755943
C         2.59105216516787    0.65598332282928   11.19687250472277
H         3.04513745824143    0.41903186094739   10.23200241434651
H         3.39533085848824    0.75199001446661   11.93787679665977
N         1.66344269591669   -0.42440700106654   11.52571112169465
H         1.47964536045844   -0.44968767703942   12.52408072883531
C         2.15657941083482   -1.72487153310547   11.08028837808473
H         1.52004350121488   -2.48841675180136   11.53825120163554
H         3.20486267873147   -1.89882037760535   11.35610768948444
C         1.11561403598510    1.98652188702472    8.73339959871499
H         0.23998275761775    1.72304338177978    8.13599899950535
H         1.90883781273747    1.27065588867493    8.51199660955122
C         1.58422562940669    3.37810822836190    8.39815815798521
C         2.93331587378986    3.70982775699217    8.46846087670459
H         3.66312569612402    2.95143025156596    8.71606292725908
C         3.36878158199919    4.99574089713870    8.20159075438135
H         4.41698968275736    5.24363823264542    8.25826915911419
C         2.44364258373509    5.96620681911121    7.85360547445062
Cl        2.97716314775850    7.57705553315065    7.52450400750146
C         1.09674838041843    5.65314086842070    7.75405500594437
H         0.38707417904397    6.41126517105352    7.46316809334795
C         0.67668371116519    4.36403994647331    8.02443010996346
H        -0.36959753551418    4.11699183343188    7.92952696464269

