28
CSD_code = EWOYOF | q = 0 | S = 0 | Stoichiometry = C7H14ClNO3PtS | MND = 4
Pt        0.52474080877526    8.60048174984990    7.81690383413975
S         1.99544719986915    7.18879241874527    6.92803135477916
Cl        0.57310034327863    9.63790760948321    5.83795014667995
O        -0.78999284033314    9.86694989524042    8.68698349623403
N         0.45366719148992    7.72435666327877    9.69229705160943
H         0.54689548785289    6.70788237882694    9.65490694693378
O        -1.86828775334776   10.25442839559454   10.57983810858506
C        -0.82515700990560    8.09645478652045   10.32878888196812
H        -1.62715176281437    7.43342119315572    9.99100391683053
C        -1.20956827299505    9.54468765282339    9.85824989905295
C        -0.59298966292230    8.03547494966845   11.84661657018532
H        -0.94986420355149    8.96785489879827   12.28639273909944
H        -1.13845598196689    7.21426364054448   12.30797892932251
C         1.47418303855611    8.22873252801195   10.62233172201216
H         1.53555146207427    9.31641381029493   10.51649795941666
H         2.44442540118141    7.78145953372826   10.40548019020822
C         0.92550867292334    7.86615953052012   12.00497524201561
H         1.17490721185674    6.83093316410973   12.24319104237362
H         1.33500715298490    8.50416098666668   12.78386868429495
O         2.36976505400074    6.13105752285372    7.86235953903885
C         3.51442763015730    7.98793368603636    6.34144818175586
H         4.16217039280481    7.23776297894228    5.90324788004310
H         4.00238430108787    8.45278771452415    7.19160118760918
H         3.21559458563197    8.73920570885118    5.61931216062091
C         1.46651357091568    6.41243892599169    5.37728438748112
H         2.26902723313841    5.78717370573088    5.00408033497125
H         1.22203090779438    7.21566076170126    4.69149585347314
H         0.58811984146317    5.81026320950611    5.58348375926551

