43
CSD_code = EYEHOG | q = 0 | S = 0 | Stoichiometry = C19H17Cl2N3SZn | MND = 4
Cl        1.53918188771013    2.96222343484847    6.37326528024447
C         5.96556792038528   -0.23825046670611    0.26106036797356
H         5.15208645561585   -0.88385050545407   -0.03326083003237
C         5.86878058274902    0.48720754834710    1.44475437626365
C         6.91946421614313    1.31854436333053    1.82992899966939
H         6.85831586820045    1.86028860429175    2.76289950226524
C         8.12285130451640    0.72347716448676   -0.15719743348029
H         8.99776019442612    0.81859737293702   -0.78230655759520
C         7.08627394943263   -0.11215838461162   -0.53840019147674
H         7.15154467874001   -0.66883626376863   -1.46099810603813
C         8.03976396123011    1.43314202674320    1.02964021814526
H         8.85201795386847    2.07573179207407    1.33417531247344
Zn        1.78974126408512    2.39909280128938    4.28882095125606
Cl        0.59684199748774    2.80093305401030    2.45422501563083
S         4.58021635065028    3.10240446020053    0.96196611275541
N         3.48200770374064    3.47416797603635    3.42660150101194
C         3.98707771423692    2.69559274706145    2.56369004175906
C         4.15546273672394    5.52155666713230    2.15013764068325
H         5.22994001587209    5.48566087195949    2.34535738585976
H         3.85997373480292    6.56629409136274    2.04723635349123
N         3.98467366329842    1.33630426627542    2.85922569815890
N         3.06435411252054    0.85800191356848    3.71330156353815
C         1.71584989253916   -0.83287154163506    5.69010513161896
H         1.93096160079412    0.17027033147681    6.02725957841514
C         3.37852137677098    4.90311073400327    3.30632459220425
H         3.70564554077204    5.31413023216019    4.26618830646010
H         2.31099952358605    5.13130277073510    3.20448484632872
C         2.30142187276646   -1.31430337819743    4.51905276351161
C         3.84627940135709    4.77061657130535    0.86914566546781
H         4.29244389486125    5.23622696875355   -0.00751730344988
H         2.77281942822865    4.64902288970217    0.72296525049266
C         2.04686589510957   -2.62634187151269    4.11831221741021
H         2.48453600690633   -3.00332339363280    3.20625363108755
C         4.19875235496124   -0.84826913648333    2.83735741160244
H         4.55372621551635   -1.83925791253967    2.64364927829938
C         4.70814838513047    0.31727432686937    2.31319241572550
C         1.21505488701553   -3.43422076553999    4.86943904329351
H         1.01828453882684   -4.44655127793175    4.54883868340079
C         3.16387451336658   -0.46319874241807    3.71541720079817
C         0.88472036966187   -1.64748204357260    6.43562771815831
H         0.43559149194142   -1.26426664044262    7.33907195808284
C         0.63079313732393   -2.94712263279688    6.02777865987874
H        -0.02048859383234   -3.58047102374818    6.61132974866166

