26
CSD_code = EYEHEW | q = 0 | S = 0 | Stoichiometry = C7H11Cl2N3OSZn | MND = 5
O         3.04386347633350    4.70816958627630   -0.04988147086743
C         3.65135056674930    5.07507223823580    4.85467715228718
C         2.60073392688263    2.93840969793952    5.14746777947394
H         3.22337975261047    2.12787024144950    4.75040631533217
H         1.56571315015306    2.70680161827638    4.87998740380917
C         2.76544686005397    3.05480103142532    6.65900864400995
H         2.03623676692633    3.76256286757032    7.06073880796300
H         2.58235187575672    2.07949301807656    7.11126180178683
C         4.16831734577753    3.51496738403931    7.00808901716431
H         4.92637906723731    2.88683985648226    6.54017102662134
H         4.33566882514478    3.55027368466122    8.08359607347045
C         3.72771035816341    7.27054054227685    2.19944333891184
H         3.44444481353896    7.47799348423423    1.18687559211934
C         4.48209338373068    8.04716721022222    3.09266864945759
H         4.91475034193374    9.00942990704445    2.91495801651154
C         4.55036697956129    7.30081626937439    4.24027520425516
H         5.02796309622469    7.49424079738521    5.17958544080592
Cl        0.90388515511771    3.31085531808255    1.85677671270121
Cl        4.91469997507183    3.23367020150953    2.13272378487256
N         2.94567138503710    4.12399252544241    4.41900029929705
N         3.86226106649231    6.15797886338000    4.01008116909354
N         3.36219559481073    6.14605255805621    2.77158955915028
S         4.43839127883043    5.22230265064522    6.41933746362146
Zn        2.88961661761084    4.18112566303663    2.20754838804105
H         3.80516020625827    4.19487770587988   -0.34626905247644
H         2.25764813399397    4.28629507899972   -0.41821711741348

