31
CSD_code = EYETIM | q = 0 | S = 0 | Stoichiometry = C12H14I2N2Zn | MND = 4
Zn        7.75482853948149    5.75228059112812    7.28463760755586
I         9.15924590909656    3.98957488322953    6.13204759561340
I         6.28960345444268    7.60985468565035    6.38365945243741
N         6.32080599342748    4.64264188413933    8.57895285703488
C         5.59248454497189    5.22172671462150    9.53657646368027
C         4.47549843931966    4.58818740351541   10.07637928577483
H         3.90491447689790    5.08915977872192   10.84273716693423
C         4.10961025906505    3.33598408181707    9.62284281319636
H         3.24290119520190    2.83536945566677   10.02707763275324
C         4.88392594473354    2.73657419034310    8.64043062200477
H         4.64984499114339    1.75747421515751    8.25597038174502
C         5.97280047628701    3.42927512915046    8.15198619344599
H         6.59846257130649    2.99090277257937    7.38710008144731
N         9.26304472715074    6.74136680765124    8.59115444503163
C        10.04277416822952    6.07853546139385    9.44885207776703
C        11.18818203898010    6.66396010764172    9.98346410982245
H        11.79985506066158    6.09612475212104   10.66716372184625
C        11.52918100399310    7.95479215518696    9.62980880512432
H        12.41699791682687    8.41945456443664   10.03120388891266
C        10.70245507063942    8.63974455076719    8.75151930088985
H        10.91549829501748    9.65156392473710    8.44801787698218
C         9.58790691934101    7.99077040138832    8.26085585423884
H         8.92132160113212    8.49592245336212    7.57579697260663
C         5.98627359214742    6.57698468486595   10.01712686802293
H         5.41685615533223    7.33397570332937    9.47603146258462
H         7.04391566966135    6.76513900479545    9.84962432588834
H         5.76592878682103    6.68485074725725   11.07671675369463
C         9.67532184061274    4.68240462178912    9.82092611242949
H        10.20915064150908    3.98240795729646    9.17686421230312
H         8.60925363537945    4.50754303306675    9.70033311239020
H         9.95885608120158    4.47465328318465   10.85004194583386

