33
CSD_code = EYIWOZ | q = 0 | S = 0 | Stoichiometry = C12H14Cl2N2O2Pd | MND = 4
Pd        3.95124393145939    1.69683637560588    0.00043917306639
Cl        5.16779132888677    2.36637649353329    1.85143601408658
O         2.47274298423209    3.99370420256733   -1.00446847108343
H         2.72798682313675    3.14799873071095   -1.46791790866068
N         2.31525332775518    2.54535319664314    0.75409508754838
C         1.93896462318256    3.68953648043794    0.17967865051328
C         1.01966079611899    4.53847163733522    0.79558009999962
H         0.76003044445058    5.46621186392147    0.31512151825732
C         0.47409783536327    4.14553419751220    2.00106031467292
H        -0.23898675472793    4.78014534426576    2.50413233970810
C         0.82861406543704    2.92053790024407    2.55019786465515
H         0.39273206262682    2.58189865108246    3.47587173502496
C         1.76616713972111    2.13345379852875    1.90047819506776
C         2.21948225029004    0.80537973350029    2.42201644405989
H         2.48988179492809    0.14370866072955    1.58256576157102
H         1.43924783803425    0.33736888976801    3.01683837116999
H         3.10035868312722    0.94782236265914    3.05373815387002
Cl        2.73506473897548    1.02598924143527   -1.85035709452381
O         5.43029685782000   -0.60209053777790    1.00260545781433
H         5.17368044019194    0.24262191109917    1.46684881702183
N         5.58729805067030    0.84897428486115   -0.75368139780540
C         5.96391320958507   -0.29598319306700   -0.18111866189621
C         6.88327475997885   -1.14377942174358   -0.79852890805957
H         7.14305207797558   -2.07233400036217   -0.31973093348253
C         7.42867946289956   -0.74872870691976   -2.00339217774492
H         8.14185526584473   -1.38235232168155   -2.50758039756902
C         7.07392372736484    0.47712543850819   -2.55046762537281
H         7.50975574089822    0.81744976562018   -3.47554393100193
C         6.13620271214480    1.26289409095739   -1.89943053188829
C         5.68254749272924    2.59173497499778   -2.41874322368834
H         5.41223744952673    3.25209166284038   -1.57821514352150
H         6.46257579030894    3.06082219871112   -3.01299477457484
H         4.80157304906228    2.45012609347556   -3.05053281723412

