45
CSD_code = EYIWAL | q = 0 | S = 0 | Stoichiometry = C16H22Cl2N2O2Pd | MND = 4
Pd        4.16057502125008    0.00014645696130   -0.00034981690173
Cl        2.85994651554897    0.91057090326702   -1.68158196002332
O         0.75100382749641   -4.05214362284685    1.13529913794476
H         0.80959008274915   -5.01120785789155    1.09249150824710
N         2.88522340309744    0.74328359815567    1.28360564908875
C         1.96320952637824   -0.00300360317597    1.90102560924868
C         0.97246602151876    0.59427100316027    2.67429006050968
H         0.23133140566586   -0.02594764763128    3.15365198055026
C         0.94602803867498    1.96923773104895    2.81941154241163
H         0.18163328909771    2.44545301022731    3.41427466687074
C         1.92354453613780    2.72281332732416    2.18636496975976
H         1.94797915447039    3.79687451938060    2.27547592656469
C         2.87076257151568    2.06697878964283    1.42343159836830
H         3.64499424547500    2.62023792120914    0.89521876036779
C         2.04550248492433   -1.49204419048861    1.74818408412899
H         1.41131148325425   -1.97718643817616    2.49063910794728
H         3.08828877703370   -1.79723488013585    1.91225966486337
C         1.60845702039670   -1.96770163074764    0.35182771601897
H         2.25233165130856   -1.52137105974211   -0.42774157426577
H         0.57435042382183   -1.66855398883431    0.16992300854586
C         1.70098523488380   -3.48708547781441    0.25436137617771
H         1.49606659741685   -3.80206811292680   -0.77948411415713
H         2.71608069437667   -3.81467484924543    0.52652621002299
Cl        5.46129869612145   -0.91005590857912    1.68085671937329
O         7.56967852944369    4.05274360710265   -1.13556039380316
H         7.51072609581198    5.01178018362305   -1.09274694451970
N         5.43607974694090   -0.74320403195488   -1.28398268351061
C         6.35863854853458    0.00280651340173   -1.90091870405113
C         7.34985620475781   -0.59478498883814   -2.67331079130718
H         8.09153232130030    0.02519836358162   -3.15214312417910
C         7.37615520995139   -1.96978402254622   -2.81815614213635
H         8.14094540136669   -2.44625332475059   -3.41230078586496
C         6.39792619076025   -2.72304986774269   -2.18584275704713
H         6.37326501781704   -3.79710703028286   -2.27489515513395
C         5.45030021991950   -2.06690634905784   -1.42369580064087
H         4.67550567898521   -2.61992818705588   -0.89605527358074
C         6.27638543653497    1.49188641859818   -1.74847943819382
H         6.91083416313471    1.97682623524912   -2.49082563422233
H         5.23369252114222    1.79707537855089   -1.91301741355461
C         6.71284194723711    1.96799135215058   -0.35211672883845
H         6.06893277916685    1.52148915657858    0.42732490751224
H         7.74700695714441    1.66926200642550   -0.16991891748788
C         6.61965628786094    3.48735172648452   -0.25487665858632
H         6.82406743284766    3.80256063775386    0.77899846278814
H         5.60451260672770    3.81445823058559   -0.52744185530251

