53
CSD_code = EYOXIA | q = 0 | S = 0 | Stoichiometry = C25H20CuIN5P | MND = 4
I         5.57651527514498   13.45732977395140    6.64587436598671
Cu        4.54774482207312   11.47951289409005    5.55456805074724
P         5.10951614101528   11.41234059294431    3.38629325696526
N         5.08036564144018    9.58042721026486    6.13780935177289
N         2.84521034953518   10.97966408666079    6.25698623142293
N         1.92564027762239   11.86953669987786    6.56284339447784
N         3.97883752634804    7.68361828795320    7.02505604462179
N         1.93963063297087    9.44635629280388    7.81032454805976
C         6.14828302488571    8.84512483604565    5.86503693895691
H         6.97747551560482    9.35938264745615    5.39472363114174
C         6.19337761673938    7.50028329196229    6.18217330126106
H         7.06816840593020    6.90410712309814    5.98572173350755
C         5.04952403391333    6.96187662231519    6.77541578763376
H         4.98896820464197    5.91760667492368    7.05144187489150
C         4.02985977883381    8.97226249263800    6.71326884217849
C         2.88346920689060    9.82478419868393    6.96176882043466
C         0.97420095047530   10.30733179821846    8.04976931997044
H         0.17387404089129    9.98463904320482    8.69865045360515
C         1.02683564143473   11.58861212425781    7.47101012700380
H         0.33007427413262   12.37638391406638    7.71128015651259
C         4.23639543548223   10.34608569465248    2.19171210829063
C         4.18755275274311   10.62636550728120    0.83021226846393
H         4.67307024116893   11.51249873497604    0.44610002063204
C         3.51520722131261    9.77019769917296   -0.02203932839979
H         3.47801149842829    9.98676022794958   -1.07963128242229
C         2.88921379663115    8.63736126382131    0.47488184323358
H         2.36599240630667    7.97244633468101   -0.19613251390314
C         2.92779451310249    8.35964321556210    1.83138935097754
H         2.43459697903424    7.48078587075226    2.22076467938661
C         3.59583776504001    9.21508355675926    2.68830265518887
H         3.62228300185144    9.01218000671677    3.75277625355173
C         6.85416559644636   11.01441277080741    3.09345602778729
C         7.26632214800408    9.84113152101371    2.46895407783880
H         6.53357132202283    9.16313573806528    2.05137041856839
C         8.61614144363539    9.54950223438974    2.37937967499761
H         8.93541908650039    8.64261410544930    1.88614997496512
C         9.55468567870829   10.41301117938185    2.92084854670614
H        10.60635073196094   10.17857962731843    2.84848537599692
C         9.14511514367763   11.57371868800503    3.56007027107257
H         9.87390215468593   12.24302922071295    3.99161973197452
C         7.79996189008086   11.87387415586675    3.65403176011047
H         7.47279838716399   12.77075332582100    4.16278642901023
C         4.92084682297357   13.07044077965877    2.67418243929125
C         5.79140579433416   13.61260795705978    1.73437412068592
H         6.64564929100112   13.04397991805589    1.39190661147036
C         5.56710874115074   14.88987815319412    1.25419110019573
H         6.24470361451529   15.31420825155394    0.52762276410939
C         4.48487310582921   15.62710187200777    1.70724569150868
H         4.32233023900783   16.62720189182468    1.33394114924518
C         3.61935877505173   15.09016920809445    2.64640729262232
H         2.78455656806924   15.67022264650896    3.00966275827402
C         3.83645631672889   13.81469097118630    3.13144250316656
H         3.17985017671125   13.39054706611855    3.88221899465552

