44
CSD_code = EZAFOB | q = 1 | S = 0 | Stoichiometry = C8H26ClN2O3RuS3(1+) | MND = 6
Ru        6.99297755701262    2.79556618800739    2.29697943917375
Cl        7.27690039723596    0.50092425315438    2.08894604244545
S         8.82931322328618    3.11964658565424    1.02307107157797
S         5.55551648471736    2.85355081871076    0.53539948000987
S         6.76521572638957    5.08790362336029    2.56603231533323
O         8.52511240373039    4.04202243643919   -0.06072881377217
O         4.66359614055469    3.95368176307189    0.90175587405864
O         7.87579338340492    5.41277811509701    3.47322298051984
N         5.36892039306095    2.33034819477776    3.64142894000787
H         4.48183872867482    2.81153592751251    3.48597918472273
H         5.22567641426157    1.32655133945881    3.47596796946901
N         8.08282252940691    2.67502049613555    4.14680077297419
H         8.98472367549275    2.20268808905791    4.08181052688141
H         8.24813956177108    3.64359040423380    4.45110482032280
C         5.82749326037306    2.50430886613842    5.02829592919038
H         5.83453285292021    3.57015744731955    5.27335431175776
H         5.17424426678488    1.98308196268497    5.73619009843581
C         7.24877487362220    1.95868321654701    5.12302600217573
H         7.25090094760786    0.89818229900358    4.85081775553179
H         7.63256768520193    2.07136838240071    6.14208935720040
C        10.24835309924814    3.82213888023030    1.91191712648696
H        10.93833422760041    4.21643439007482    1.17420575984176
H        10.71935349260263    3.04663968576149    2.50403729415665
H         9.87943138471084    4.62726713937441    2.54301402699147
C         9.65338974558572    1.69045979834956    0.27154473000202
H         8.94912322201528    1.21148633979940   -0.40066486633178
H         9.93560801253542    0.99937002362582    1.05737079334607
H        10.51527095230930    2.04720935342705   -0.28051902557985
C         5.96116710035259    3.04167286042196   -1.21891505153302
H         5.05859651244188    3.36099118826510   -1.72778872515790
H         6.30878200077448    2.08405936434219   -1.58826600572083
H         6.74259401484982    3.78807893759466   -1.31690834466829
C         4.51176500759796    1.36945105581861    0.38992242534322
H         3.85740811959994    1.32864328077076    1.25411600563277
H         5.16474930766696    0.50308352050702    0.37244507075921
H         3.91901953960916    1.43398906892121   -0.51483686757977
C         6.85564760715857    6.23648423303733    1.17441778985091
H         7.05825970103907    7.22384263931445    1.57337216423091
H         5.90368228896467    6.19553401978007    0.65921316660038
H         7.65760812883746    5.91967037810889    0.51545016758044
C         5.26189585405431    5.79049644983869    3.31837998620883
H         5.13656253492878    5.39422745743999    4.31922355321189
H         4.43176379431695    5.51434945583698    2.67922856948448
H         5.37677384572757    6.86673007058813    3.36839619881667

