25
CSD_code = EZASUT | q = 0 | S = 0 | Stoichiometry = C8H9BrN3O3Re | MND = 6
Re        1.74278853304005    7.42321708027716    4.69808738335642
C         2.87628226219132    5.84902175691443    4.85539373557118
O         3.57500921588861    4.94942681224700    4.98140558158439
C         0.29049164633430    6.48816132381260    5.58979405109086
O        -0.55918933154498    5.97071764260703    6.16297263081649
C         1.12953849978432    6.95321964083215    2.92293841610922
O         0.76918895031309    6.67966495611577    1.86624533121343
Br        2.64018617227026    8.34260666780112    6.88781677735488
N         0.63116872641632    9.34711675409305    4.58074215200385
C        -0.66430884392267    9.46602311597357    4.76744584729105
H        -1.34481284864013    8.64899174538954    4.91280504413598
N        -1.03354402234379   10.75653019412678    4.74803557315480
H        -1.96536321035687   11.11368677792491    4.88293825384774
C         0.09132980661045   11.49888005663107    4.53768020130492
H         0.07936978567511   12.56712707381253    4.48420481606270
C         1.12780668642041   10.61303574539240    4.43694971552433
C         2.57337588034536   10.92319993043432    4.23484440784759
H         2.65991025462667   11.96306299695952    3.91691423689624
H         3.09518072333415   10.81922210395434    5.19293008989326
C         3.24419928363482   10.01110715225007    3.20319234699957
H         4.17972111510608   10.48284907034907    2.87292470484016
H         2.59534537195491    9.89050889894127    2.32956523479180
N         3.51333401742397    8.68678157898050    3.77501790460761
H         4.13637455059342    8.81063795998342    4.58112271782810
H         4.02551677484486    8.12650296419638    3.09153284587348

