70
CSD_code = FAJKOS | q = 0 | S = 0 | Stoichiometry = C27H36Cl2N2O2W | MND = 5
C         4.45953170739157    6.36600754763322   -0.18319624163030
H         3.95684976025792    5.82295933793994   -0.99061489381249
C         5.69430589294656    7.03674471100935   -0.78971706182249
H         5.40437056244244    7.83214260369005   -1.47309506859506
H         6.27542602858659    6.30206995666862   -1.34217022288523
H         6.33483120327182    7.45719476022825   -0.02025096507811
C         4.86555132441450    5.35382575622963    0.89664837993687
H         5.40657212809974    5.85814329417479    1.69328627886974
H         5.50853421343425    4.58768718333410    0.46945951166559
H         3.98045182896056    4.87317188649078    1.34079229271325
C        -0.28786230202667    7.77168238685657    0.88047064828608
H        -0.48737569302752    6.90842685797180    0.23357014524491
C        -0.78343734993548    7.41299869445056    2.28717762823005
H        -0.74509833316380    8.27696216909111    2.94599337606977
H        -0.14980836047740    6.62548139591726    2.71978096169211
H        -1.80749682624035    7.04941362856898    2.24175648093561
C        -1.05186336311252    8.97038707433268    0.31404467385556
H        -0.92382520469943    9.84768572217825    0.94223023908147
H        -2.11283649257066    8.73960997672945    0.26080377117905
H        -0.69937463445513    9.21159181609318   -0.68696701247224
C         3.22716457481313    2.43824805821396   -1.11717531953144
H         3.24663022776918    3.41421696366705   -0.61927743748645
C         4.15170601648406    1.52768276575673   -0.31293459553168
H         3.74130553949826    1.39400006024137    0.68423318390010
H         5.12864080546004    1.99643784555727   -0.21988541093294
H         4.28796101570296    0.56037253289469   -0.78960849809104
C         3.74506442406589    2.59096969271070   -2.55326152056809
H         3.72514962713990    1.62958342288829   -3.06241277893349
H         4.77008240882828    2.95408325054706   -2.54329658574342
H         3.13796865613384    3.29176600004399   -3.12301114680836
C        -1.68881943398806    3.38698954103587   -1.91911176116403
H        -1.39234139091405    4.39534303169504   -1.61639519525697
C        -1.90870148726948    3.36369981848077   -3.43723282899459
H        -0.99267953151052    3.59011368375845   -3.97864017310023
H        -2.66391116919386    4.09462169270052   -3.71607514626120
H        -2.24892954410979    2.37971847782184   -3.75165850119937
C        -3.00071670149958    3.06724155517729   -1.20291638363849
H        -3.42916099180169    2.13137358578324   -1.55105623701946
H        -3.71962044688758    3.85944526180789   -1.39743438670324
H        -2.83589044860981    3.01142904353894   -0.13214940351806
C         1.33076137567505    4.91519770185559   -0.16803907286184
C         1.51737414534640    6.28102875007226   -1.92771892484407
H         1.71500851927693    7.19895678522199   -2.44185867789667
C         1.13119557648564    5.06584633168307   -2.38840529249409
H         0.92887592129354    4.72955766592696   -3.38399756709954
C         2.11401665741607    7.20532386717117    0.28219412695491
C         3.49692772168613    7.35948798984411    0.42460740936029
C         3.95129927760091    8.40465599509062    1.21604405814589
H         5.01002166001826    8.54112192591391    1.36541335860356
C         3.06307260388288    9.26396677551974    1.83463197103246
H         3.43627738453112   10.07141523999634    2.44657346151416
C         1.70172954996247    9.07462361974636    1.70378272317407
H         1.02091999736167    9.72987127732241    2.22379643850065
C         1.19913065025936    8.03340047572585    0.93403208933525
C         0.73090480409992    2.84745945605743   -1.33838094290179
C         1.79538662593865    1.94958940047839   -1.16936977772275
C         1.49780421419440    0.59410742959526   -1.17209437951909
H         2.28616068398397   -0.12693853345827   -1.03646837758879
C         0.19973490033753    0.15120508425605   -1.34450582535476
H        -0.01187081704640   -0.90748482531942   -1.32704254471800
C        -0.82203410172131    1.05205934403843   -1.56729163084332
H        -1.82203132647941    0.68819407488123   -1.73793035194950
C        -0.57947354326191    2.42019993213349   -1.57366670375328
Cl        0.36361103859078    3.65649001530538    4.00265372760446
Cl       -1.01380878790604    4.20374781685758    1.29981565775017
N         1.63584070332653    6.16556758772232   -0.57074386431863
N         1.02293933700479    4.24610483323662   -1.30134963726512
O         2.09267917749211    5.58834471397840    2.50631342939272
O         2.16468401853646    2.86657496033786    1.71754814717655
W         1.23531379190807    4.24640126488685    1.96535417770784

