49
CSD_code = FAJPIR | q = 0 | S = 0 | Stoichiometry = C24H21ClN2Pt | MND = 4
C         4.75022349719581    5.43788712753619    2.10857553640987
C         3.46141136045229    4.94028663555357    1.96618390595139
H         3.11969387165618    4.13456282729047    2.60529274667718
C         2.57823335055125    5.44521234096435    1.02083606497437
C         2.99691560180897    6.48116030756545    0.18985652099942
H         2.31955908163030    6.86923626484725   -0.55796347154972
C         4.25843066908218    7.01967434772133    0.32099037505793
H         4.55864772753938    7.83085600619013   -0.32666473269728
C         5.13589436548681    6.51031988174591    1.27756137312010
C         6.47129469988701    7.02703755794658    1.53400452852838
C         7.05029206045603    8.12337589860153    0.89593329312921
H         6.50769024392666    8.63704942758562    0.11890127085983
C         8.31195752808949    8.54890885670621    1.26317627781744
H         8.76765310796765    9.39769662531650    0.77550850232605
C         8.97922728620107    7.86827885551825    2.27183697516092
H         9.96239200274716    8.16958368325226    2.59503852866257
C         8.35995769325769    6.78228575358061    2.86263337280093
H         8.85284568038696    6.21512470818356    3.64292057306674
C         1.20238115334410    4.87188757744748    0.86714085635211
H         1.14339796233085    4.28681828285571   -0.05115049209792
H         0.45915429692570    5.66496610357539    0.80428932260357
H         0.95438647249624    4.22326850470854    1.70377907086498
C         6.59868432439357    2.97612074353617    1.08606200296297
H         7.45409170456204    2.96353452164644    1.75591294465945
C         6.75052762529105    3.43194383223536   -0.21276714546260
H         7.69116831121117    3.86900166291779   -0.51561854187239
C         5.70948247674746    3.34462835390574   -1.12961247668862
C         4.52964099866995    2.72224245046410   -0.74060264398047
H         3.72137225411881    2.62357686486311   -1.45062327196128
C         4.36797441751610    2.24921910463891    0.54757720057938
H         3.43204694514244    1.79846416672136    0.84404115182644
C         5.38482836464069    2.40236440837816    1.48284672287453
C         5.15164484711023    2.08083669871340    2.90017810217966
C         4.64122244544953    0.85489824623542    3.31174993426639
H         4.44507673304485    0.09160641918651    2.57480374535867
C         4.41694201431141    0.62584236993737    4.65753208340690
H         4.03095649952419   -0.32289328801752    4.99767605236342
C         4.70527401630729    1.64051836979577    5.55985711234173
H         4.55002652868332    1.50540666988437    6.61811175630817
C         5.20119032521230    2.83818718887740    5.08214146050231
H         5.44258946685870    3.65349248832780    5.75513569096506
C         5.84758034871075    3.92223755160299   -2.50350893699306
H         5.44418384636417    4.93548825036483   -2.51170538160145
H         5.29436557906180    3.33434227586409   -3.23243422272067
H         6.89119390677502    3.97106811461324   -2.80428329021878
N         7.14633995519589    6.36662216663823    2.50739471513471
N         5.41844023913350    3.05978114238956    3.78489607175940
Cl        8.19585798031579    3.91149879134743    4.38070516846895
Pt        6.28515813221007    4.72409286024532    3.18815359652636

