35
CSD_code = FAWYUY | q = 0 | S = 0 | Stoichiometry = C11H20AuBrN2 | MND = 2
Au        1.48164100185709    8.72643171834810    7.39111486843446
Br        1.26172686854134    7.20324805211451    5.58378153280760
C         1.66563242967098   10.05034743856238    8.96123621675232
N         2.02889467431735   11.34842919570949    8.88813865978372
C         2.38256787493868   12.06394164989115    7.65494925726216
C         1.17707934755769   12.06022057896081    6.71100239719441
C         3.59304804156707   11.38315827368930    7.01026609720779
C         2.75121240135720   13.51620633633382    7.96912098344595
C         2.02011580702201   11.90084516256620   10.13947757167995
C         1.64663068190855   10.92945945086127   11.00200755833526
N         1.43199614592824    9.79644344439843   10.26643064915002
C         1.01049402595722    8.50210934438668   10.81846751145648
C        -0.34338847242988    8.11817825560544   10.21563274520774
C         2.07686969141873    7.45057362704508   10.50090356545027
C         0.85775705607715    8.59631177105200   12.33869562304608
H         0.31466391880718   12.51424041181124    7.19537344536486
H         0.91546216532493   11.04497460997581    6.42129067449989
H         1.40917256167918   12.62357779978644    5.81192688172593
H         4.43208179777073   11.36448080883506    7.70320686910824
H         3.89005554265071   11.92555876239303    6.11737052618577
H         3.35646406920980   10.36011967707842    6.72731443822290
H         3.60971596371865   13.57305519943271    8.63525331936257
H         1.91292331791063   14.05326706956984    8.40777824449044
H         3.01698717587304   14.01486123488899    7.04085355234607
H         2.26833982267142   12.91810726188064   10.34740723470324
H         1.52936965438716   10.98833113590439   12.06149714004284
H        -1.08387561150574    8.88785722986969   10.42534435595443
H        -0.68573685310190    7.17928766524100   10.64101973649496
H        -0.26680708135318    7.99815766861940    9.13732848904804
H         3.04209574287018    7.75605242766295   10.90049486236490
H         2.17691045071402    7.31201083822262    9.42672282615950
H         1.80124490950496    6.49835668615785   10.94470117410228
H         1.80048009399737    8.85286869957743   12.81723074319560
H         0.54548188709405    7.62636546167852   12.71678898441902
H         0.09699289605894    9.32246505189528   12.61747126499623

