61
CSD_code = FAXKUL | q = 0 | S = 0 | Stoichiometry = C28H22ClN7ORuS | MND = 6
Ru        4.74596781864770    4.02339638902336    4.38534207644134
Cl        3.54257020122413    3.85026887034494    2.36966077620964
S         5.99657578724214    4.12589370981523    6.34368045072050
O         5.45831209096394    3.19329914266268    7.32476935662606
N         5.31328309927965    2.04467369949974    4.04272589154677
N         7.13223553575833    2.53293403086787    2.56673043107830
N         6.37244566226709    4.62257106751556    3.41603268291033
N         6.37313330822582    6.91444828074020    4.08777265436576
N         4.18546753722273    6.00033275247596    4.48962475537586
N         3.28005186124424    3.53189818366389    5.41264740900448
N         3.17711129537655    6.26147366499018    7.93179719652927
C         4.57396997413145    1.06298628043968    4.56642184642187
C         4.53094812691970   -0.21962177103791    4.06840917912403
C         5.29639427642652   -0.52823756274957    2.94498149990406
C         6.12150920353196    0.44223621523514    2.44151656952687
C         6.14393557266028    1.72956996587877    3.01813563615195
C         7.26003986420593    3.79556833370126    2.81193601496561
C         8.46437682718777    4.56188970945146    2.47685515620988
C         9.64063722533438    4.22471944334600    1.83904576604131
C        10.60332247685306    5.21656028478984    1.69924623423295
C        10.39123981777051    6.50083663689490    2.18316027759320
C         9.20670695035798    6.84381100504464    2.82248242387323
C         8.24949785339984    5.85942985575278    2.96432584539929
C         6.90425242200486    5.85953483439694    3.54810995522197
C         5.07059867296423    7.02502465281586    4.44766866236061
C         4.65896857115435    8.34025127545977    4.73768999725340
C         3.33661070817008    8.61799981372767    4.97248711241576
C         2.42267748740427    7.57226242380120    4.88158077828950
C         2.89313737350079    6.29990367710698    4.64271478969561
C         2.46600150416266    3.38187250271420    6.22642955083449
C         1.53491737972075    3.29788124044440    7.26214123488629
C         0.62228805951124    2.24509255196907    7.38152185671124
C        -0.26605866837279    2.22116025292634    8.43615376689320
C        -0.26676542579781    3.23582670658671    9.38888115581893
C         0.62427017044138    4.28750520890812    9.28761809132922
C         1.52737557022709    4.33171833626986    8.22962825387190
C         2.44040271984063    5.39302166079753    8.08132914444337
C         7.76515688638704    3.68608917671905    6.15303780443050
C         6.26117559425051    5.69723027311561    7.22745128816292
H         3.99908593088204    1.32001515410356    5.44700283649385
H         3.90376383842013   -0.95886544205996    4.53953685725649
H         5.25756683511347   -1.51189775525738    2.50213753991708
H         6.77542497637392    0.26814487669354    1.60303185868663
H         9.79485078826932    3.22656301290990    1.46163147231896
H        11.53450149095792    4.98666666247051    1.20250053131378
H        11.16139776341614    7.24743581616882    2.05586947721628
H         9.03091425472972    7.84010376252064    3.19604248845841
H         5.41751451531152    9.10560669114110    4.73056461546743
H         3.01022432222952    9.62240704352884    5.19442250440771
H         1.36478409586503    7.73909999763175    5.00067610173046
H         2.19707011597943    5.47539525652453    4.54987769172022
H         0.62555615303352    1.46056938755459    6.64009366306308
H        -0.96782577141029    1.40551341685067    8.52417752396649
H        -0.96600832179099    3.20274204844770   10.21000066242680
H         0.62966045463543    5.08077241670081   10.02065277901623
H         7.82128298106238    2.77171565517542    5.56927220996737
H         8.17522091171583    3.52046721251803    7.14280240844097
H         8.27993245655874    4.49277765091331    5.64319539262628
H         6.77276832346614    6.38879608998596    6.56780179343750
H         6.84257404952990    5.48922114419561    8.11812724932118
H         5.28159844385846    6.08253712523631    7.50153876991348

