63
CSD_code = FAZPEE | q = 0 | S = 0 | Stoichiometry = C16H32Br2N8NiS4 | MND = 6
Ni        0.00019707009698    0.00480153414621   -0.00490899268809
Br       -0.64080539286731    0.35427621004485    2.22846776751960
S        -2.20685215650959    0.16491827675768   -0.57561105814873
C        -2.61152889855372   -0.94935018492480   -1.74827131679613
N        -2.11723337844985   -2.17869899791717   -1.88983760418395
H        -1.24439348023385   -2.45928654467172   -1.41007627929834
C        -2.57902626229913   -2.81315910510902   -3.11098317177461
H        -3.01447088202702   -3.78884528682534   -2.86157829421017
C        -1.43387385799125   -2.99989548560179   -4.09855460471951
H        -0.95130924619847   -2.04558673000684   -4.29652273420342
H        -1.80311358743072   -3.42323302779884   -5.02867581926198
H        -0.68903770022765   -3.66975068178132   -3.67762954564262
C        -3.66532565303496   -1.82768652826732   -3.60805595466108
H        -3.43814498852664   -1.46190019090699   -4.61428225521624
H        -4.66212600684959   -2.27960530035073   -3.61455869155981
N        -3.60776558788958   -0.75512277973869   -2.63584326150070
H        -4.00528364611493    0.15248349086376   -2.79994153702267
S        -0.02128706403827    2.79247679722151   -0.25365542029832
C         1.17051576890657    2.87827237404331   -1.40327898241864
N         2.48447693070267    3.05939724318179   -1.16412081217402
H         2.86887268612973    2.89667328074597   -0.24776954212481
C         3.28384486506657    2.84375507288416   -2.35952405928344
H         3.93257689187552    3.71499874828591   -2.51531503425844
C         4.12869823755506    1.57986313166358   -2.24758015449144
H         4.84048230219027    1.66698273287582   -1.42913352037806
H         4.67690172694888    1.41494342336542   -3.17076673650568
H         3.48857618586899    0.71999463436714   -2.06464999274654
C         2.20314176131576    2.74378978715980   -3.46031886398625
H         2.28935186067409    3.54601431018321   -4.19800786325444
H         2.24643415121412    1.77580502494546   -3.96846488930909
N         0.95808866376666    2.87643313680643   -2.73070093636277
H         0.11335388909980    2.46774894712077   -3.09780554233005
Br        0.63918234812399   -0.34943089729719   -2.23789978282190
S         2.20876655968380   -0.15561849131678    0.56427194375253
C         2.60956952088631    0.95100516932043    1.74531919864751
N         2.11707714845143    2.18061762235804    1.89139685653498
H         1.24690978979726    2.46503431698878    1.40934286926806
C         2.57383887900805    2.80720458721107    3.11851926265987
H         3.01413981068745    3.78257998255255    2.87648979107480
C         1.42379801151266    2.99299255883941    4.10053689655463
H         0.93771440085382    2.03910519025470    4.29199080205510
H         1.78922243732660    3.41144521643471    5.03439589880593
H         0.68295268923457    3.66657625764104    3.67847565445468
C         3.65381815030469    1.81547770401330    3.61688604766495
H         3.41784414206338    1.44346899638556    4.61883813590544
H         4.65174062221361    2.26452053397319    3.63415256183374
N         3.60067069096768    0.74964610550726    2.63706574264095
H         3.99474587473849   -0.15997824595538    2.79842226340101
S         0.02631751759535   -2.78712580486254    0.24876971968988
C        -1.16443662619708   -2.87334791394563    1.39942429895420
N        -2.47867090220546   -3.05357826980194    1.16152108881182
H        -2.86387055617151   -2.88984583760296    0.24570891364411
C        -3.27674471749437   -2.83858063203493    2.35783205532841
H        -3.92590839071647   -3.70952376398573    2.51343064088574
C        -4.12097440459099   -1.57418177035404    2.24771173933235
H        -4.83390213351933   -1.66039789314612    1.43020221348960
H        -4.66778219676447   -1.40941942213131    3.17170309676809
H        -3.48054466540595   -0.71462737019743    2.06451329989154
C        -2.19495877283415   -2.74060051467182    3.45769569672501
H        -2.28077953821460   -3.54393878639126    4.19425486001976
H        -2.23755596445798   -1.77340466515733    3.96727222565779
N        -0.95074661218184   -2.87264981517877    2.72664065743045
H        -0.10536831485153   -2.46493146020835    3.09307105422245

