40
CSD_code = FECTEP | q = 0 | S = 0 | Stoichiometry = C19H10ClN4O3ReS2 | MND = 6
Re        1.74220142683010    7.84671040415030    2.99475155928681
Cl        3.98790422357373    7.60191087496996    2.23162042469775
N         1.87393308528804    5.72529258351414    3.14947397712187
N         2.86440923822360    7.46811103250056    4.93318170980309
N         1.50559104338192    9.88911484328363    5.40338801948945
N         6.16410205184275    7.24250155899039    8.65529894949470
S         3.21127444847289    3.64910700243589    3.82183431107569
S         3.35881734610719   10.98376769543735    6.79271875644683
O         2.43430006705107   10.84050577649741    2.70610120376754
O         0.60021334824259    7.73231690845864    0.13086360722479
O        -1.00986028434881    8.12513930052992    4.37239488564012
C         2.08349792938433    9.76097135839152    2.84187240793051
C         0.98711248864467    7.81753536116550    1.20668358552810
C         0.00295228265012    8.02466613203214    3.84443832070248
C         1.42959918572909    4.71818203587722    2.36263560459068
H         0.65995002325250    4.91148254034422    1.63549534049180
C         2.03162839517754    3.52149393700726    2.57820231158663
H         1.86170590972412    2.58719313563269    2.08363119368563
C         2.81753725574407    5.32720427894372    3.97211960872906
C         3.40333893818353    6.23662059496155    4.92576495311890
C         4.43603710836078    5.84867385358161    5.77359643876455
H         4.80823206103768    4.83772461954219    5.71592169886293
C         4.95967293320661    6.77589642405091    6.66690636146899
C         4.36378130625206    8.03399446369156    6.70674742324166
H         4.72149266768268    8.76256073374574    7.41677179885333
C         3.31635776817637    8.34129478141577    5.84251593420406
C         2.65764388825588    9.62727141110934    5.92904094690485
C         1.10401368142990   11.14828793766027    5.64413247699822
H         0.15806160032777   11.47600955064624    5.25480312164717
C         1.97209120902999   11.89948828023883    6.37832853911535
H         1.87889800164262   12.91901509958737    6.69268861333308
C         6.07730214768390    6.47402094730609    7.57054488937234
C         7.00042781026327    5.46267403483213    7.30466801912766
H         6.93457776749067    4.87542034208025    6.40246655542031
C         8.02621692939906    5.24614242527691    8.20914042349925
H         8.75787969493866    4.47221397339647    8.02835825005709
C         8.10067674570219    6.03820573086204    9.34346794967139
H         8.88217602170049    5.89846452848278   10.07331702806293
C         7.14156056770760    7.02827815453865    9.51084188542480
H         7.15569168655072    7.68303535277931   10.37237091560358

