38
CSD_code = FECTIT | q = 0 | S = 0 | Stoichiometry = C18H9ClN3O3ReS3 | MND = 6
Re        2.37302951706584    3.74588910772031   17.83392108511470
N         0.24362738680789    3.80693048367423   17.92412859645983
N         1.89155893230457    5.44948905103809   19.26076978734325
N         4.33723712871222    6.21759534336179   18.09966880074309
O         5.35481774856572    3.43066371094933   18.56395405996036
O         2.39367693919613    1.12354250901476   16.20861932562439
O         2.67143540620941    5.59584533020882   15.37680737384308
S        -1.88955763729600    4.16720545297642   19.29131308048631
S         5.31531286690101    7.31672952805460   20.19641609496560
S         1.77476971018569    8.50758503601331   23.65422404974635
Cl        2.09868501437121    2.59591183194476   19.90327851264768
C         4.28146827152520    3.59354807386417   18.20550589738131
C         2.42912467168132    2.11758859667190   16.77871063912044
C         2.56432801054045    4.89297758071033   16.27669387309191
C        -0.72121490460863    3.07663405107558   17.31860532554581
H        -0.48101973697970    2.50158038907990   16.44107459757249
C        -1.94009924217898    3.14454814609733   17.91080413672071
H        -2.85021280605726    2.65642900850167   17.62826301866115
C        -0.20911214187713    4.43846689840144   18.98294668946012
C         0.64750910251747    5.30751323666218   19.75249563923122
C         0.19818730011139    5.95052596785342   20.89804929597899
H        -0.81234011415008    5.77992805359760   21.23198375375881
C         1.07052178289918    6.77960577720628   21.60502063018386
C         2.34578739958013    6.95337793259217   21.06322514064129
H         3.05676047232991    7.60457055953149   21.54886730788856
C         2.71483517988564    6.29307207639265   19.89625160148782
C         4.01703595254570    6.53394187812437   19.31103522309323
C         6.29044545044265    7.17155370717585   18.79610798113218
H         7.29836446400880    7.53344419989443   18.79547967765057
C         5.59781583983190    6.56552455528208   17.79149492061741
H         5.97120740729478    6.35000720780037   16.80769992371075
C         0.67671081179564    7.43960582451207   22.82472730767152
C        -0.51596632050140    7.35832154961086   23.49981364618553
H        -1.34549102062864    6.75490958305172   23.17925614543712
C        -0.54746436341187    8.14240006918919   24.66548053800297
H        -1.39693751963599    8.20342440869811   25.32147284674970
C         0.61585013009506    8.81646885643018   24.87416452415361
H         0.86421291042372    9.48034442738128   25.67836895250754

