25
CSD_code = FEFTUH | q = 0 | S = 0 | Stoichiometry = C6H14Br2N2Pt | MND = 4
Pt        5.62791378017372    3.69767295265206   -0.02460041304580
Br        3.78884134066399    3.65316297659593    1.46179448971748
Br        4.36368642887493    3.68625801034028   -2.02308012165253
N         7.03182656988016    3.73915921308964    1.62711426360180
N         7.48871777977773    3.72064546643493   -1.13514870263409
C         8.37244574151873    3.41413408137034    1.12489728697186
C         9.47862418774740    3.81825878847763    2.10271804965128
C        10.85225549836244    3.48502360745576    1.52613539571073
C         8.57691146211853    4.11439539494867   -0.23201269749672
C         9.95899925076172    3.78098587869124   -0.79917180241672
C        11.05398813278935    4.18398084543557    0.18516506573579
H         8.41058449435301    2.32916793224801    0.96246242969711
H         9.33651700986192    3.29900633574078    3.05297485241418
H         9.41579818483843    4.89327282742848    2.29300476770988
H        11.62755707669251    3.79609115625672    2.22685791410252
H        10.93780775197888    2.40469284166233    1.39147432937624
H         8.50062288402815    5.19824712945901   -0.07601547939848
H        10.10128083595844    4.30074120041755   -1.74912046241602
H        10.02025431303416    2.70606001612876   -0.99029266720414
H        12.02917518959552    3.92224426827674   -0.22644387106138
H        11.03235123492249    5.26614177820518    0.33037606763067
H         7.00516655859120    4.68878391975943    2.00196937099773
H         6.73988576618392    3.11476342164430    2.37815969672970
H         7.63083308341848    2.77050892279156   -1.48161231311890
H         7.42615544387499    4.32890103449162   -1.95080544960236

