36
CSD_code = FELPIX | q = 0 | S = 0 | Stoichiometry = C12H18Cl2N2PdS | MND = 4
Pd        6.58202506755499    2.20615165648912    3.19310486622575
S         5.10285233260141    3.94273607114672    4.01886541561468
N         4.92051053021758    0.82323396036211    3.34140642949707
Cl        7.88491988453619    0.69258809779631    2.20514355747824
Cl        8.32670512429537    3.62635700655514    3.20348779437966
N         5.43520505365992    3.74284671586487    1.39587289970999
C         5.93716100648298    5.91774378692064    2.27517050410283
H         5.98286993647708    6.56515339372556    3.13553078026811
C         6.34016894776492    6.33605647766346    1.01496153515491
H         6.70229539601191    7.34224901175975    0.86942358755150
C         6.27839386609130    5.44411075519551   -0.04284459959106
H         6.59828437902431    5.72987871081020   -1.03172500658934
C         5.80886178250601    4.15984039988248    0.19539471265436
H         5.73851713178150    3.42502255094200   -0.59548561623456
C         5.51360282083442    4.60750211443739    2.40506878485044
C         3.62211899943003    2.93117467967690    3.59330588842758
H         2.77326039637775    3.37751645904759    4.11250828864557
H         3.48362109943300    3.01666442651348    2.51584708765932
C         3.80495900358605    1.48444147054553    4.03034880368033
H         2.85874133962720    0.95455459204337    3.86163375403962
H         4.01092933693962    1.47402037471737    5.10649889741548
C         4.57799807233164    0.40106583593058    1.97298487188208
H         5.51358094235368    0.07642712338262    1.50412391449017
H         4.20254900166205    1.26583442149222    1.41773584702336
C         3.56996773821835   -0.74963075548501    1.91934623047300
H         2.59470437192037   -0.43731562188220    2.30103377479013
H         3.43184775607849   -1.03695238298333    0.87636057762307
C         4.08578790140275   -1.93670273555731    2.72736702794176
H         3.34487379899865   -2.73810906198611    2.73846729530111
H         4.99412483254117   -2.32044033781793    2.25964959319623
C         4.40912783395627   -1.48945809977365    4.14984489822835
H         4.84893914276527   -2.31392015236238    4.71187162040101
H         3.49507318960207   -1.18759623056662    4.66652556239036
C         5.41406036832063   -0.33772766017733    4.10230171681040
H         5.67774136355987   -0.00689634369660    5.11499218241715
H         6.32612025105804   -0.68452071061052    3.60397652209229

