63
CSD_code = FEQJIV | q = 0 | S = 0 | Stoichiometry = C22H36Cl2P2Zr | MND = 12
Zr       -0.59648506588809    5.51610948326950   10.63551997543041
Cl       -0.51838593917284    3.82789783941390   12.27598835086553
P         0.45623762296205    8.56756511358204    9.01502589115273
C         1.07084449061511    7.08578171049823    9.89581201121474
C         1.14889260503180    7.04847167200914   11.32528854624279
H         0.98159235322381    7.89971688176699   11.97192156094838
C         1.73285516198344    5.82217433802059   11.70243186630140
H         2.01409322571704    5.52829879081965   12.70582562380144
C         1.98252467608760    5.08016998410681   10.53231160801655
H         2.46020167428178    4.10963699473863   10.48825322384234
C         1.58937438245646    5.84795557265992    9.42120172669489
H         1.74281970108888    5.55814579538254    8.39014268464040
C         0.50128114990892    7.91122624709829    7.24710665034230
H         1.45923614872046    7.40952252949480    7.08044192497636
C         0.36259453319632    9.06978697402971    6.26162113769634
H         0.27583392079805    8.68831499071641    5.24532182706494
H         1.22285979104397    9.73332061780920    6.29918066570925
H        -0.53010006967818    9.65345587451260    6.48220114458613
C        -0.63120174167621    6.90975245542920    7.02150784103577
H        -1.59556126948991    7.41507236840865    7.05517255508601
H        -0.62309122036196    6.10320918294762    7.76358458186885
H        -0.53088839651663    6.45911682401126    6.03454444410355
C         2.03807904481693    9.60587196966502    9.02520870065989
H         1.81841708791373   10.46254006032403    8.37665154400419
C         2.25441966708976   10.13245026669912   10.44231762011863
H         2.61512350131988    9.33606303532444   11.08881750721659
H         1.32650205012171   10.52698319338768   10.85456943504923
H         2.99664020849834   10.92893242332286   10.44088060684232
C         3.28989067381962    8.89393125734757    8.52719121042694
H         4.15936587111696    9.52847725016075    8.69291992900311
H         3.23723208080108    8.67503897847195    7.46391559643488
H         3.44076404987208    7.96302147388766    9.07119534843980
Cl       -0.67434815995558    3.82798818315421    8.99497048782827
P        -1.64920787371684    8.56757662136917   12.25605848735767
C        -2.26386014905707    7.08581171159088   11.37526608514118
C        -2.34186425998274    7.04857294767710    9.94579350370482
H        -2.17464030964715    7.89989729388642    9.29923775376702
C        -2.92573490084867    5.82225829625796    9.56856681240679
H        -3.20695629688987    5.52842643280228    8.56515155074554
C        -3.17534380728940    5.08015168233524   10.73864045375424
H        -3.65290940721719    4.10955637027091   10.78262867029354
C        -2.78229635292259    5.84791770661171   11.84981373345913
H        -2.93567203340631    5.55800867027846   12.88085865046714
C        -1.69439287847469    7.91127435955711   14.02398101383983
H        -2.65233205310139    7.40949217278473   14.19061565230346
C        -1.55580149962464    9.06984763242777   15.00946431987282
H        -1.46899156886404    8.68838535452273   16.02576225949291
H        -2.41613064447357    9.73328855413845   14.97191326889091
H        -0.66315844692505    9.65360993875364   14.78889875216473
C        -0.56183061860456    6.90991467791850   14.24965550036010
H         0.40249332665536    7.41532800698821   14.21616755212216
H        -0.56975975449911    6.10343568351274   13.50750805609890
H        -0.66223026800063    6.45918758096462   15.23656249706253
C        -3.23102696450351    9.60589874850757   12.24591785324576
H        -3.01136506220589   10.46249594862747   12.89457182843111
C        -3.44729501355368   10.13263611036331   10.82886593602401
H        -3.80845628947062    9.33647798390882   10.18233862065827
H        -2.51924647099114   10.52676843834063   10.41653718906701
H        -4.18912284038076   10.92947230118635   10.83045097238048
C        -4.48289134896311    8.89394813558224   12.74379946642231
H        -5.35242313974338    9.52830673110598   12.57762630934276
H        -4.43048214820356    8.67540896587828   13.80715634183028
H        -4.63348473471559    7.96284460941989   12.20004708165101

