43
CSD_code = FERXOR | q = 0 | S = 0 | Stoichiometry = C18H21BrN2Pt | MND = 4
Pt        7.30725819119254    7.87481011930936    5.12198395521634
Br        7.09210030567393    9.82227069652378    3.85502536124675
N         7.47733488666133    6.32180894372162    6.27997460146981
N         7.87928456927521    8.94477507543088    7.06945885723448
C         6.87609407750501    6.45685878032064    3.78007181571714
C         6.50324821553913    6.56863173777696    2.45111400996959
H         6.41266814905675    7.53977912885590    1.98651872352540
C         6.23565712045833    5.42933557621219    1.70205805150765
H         5.94119545767931    5.52953352631923    0.66727271144184
C         6.34892375784906    4.16747480567242    2.25976810845671
H         6.15639700904924    3.28972327028458    1.65957346095939
C         6.73886245575457    4.00870136230995    3.58377788086155
C         6.98663086827384    5.15991111954058    4.34902251111281
C         7.29709847116280    5.15953715716344    5.74973163573910
H         7.34401295229784    4.24930545129862    6.34259582153164
C         7.72536779335874    6.53469764748477    7.68164964593006
H         8.31085426750842    5.71322618586413    8.11518043961374
H         6.76600573405048    6.57275298700992    8.21484687731582
C         8.48089140503793    7.85944602747816    7.85382059163811
H         8.52889132638844    8.12643329694865    8.92179056665760
H         9.50375447750971    7.71671159659561    7.49124500238122
C         8.80653553233464   10.06749296725065    6.97839920444258
H         9.72805791203101    9.75011963274068    6.49024325259227
H         9.04872200058886   10.46960675105866    7.97127153640009
H         8.35997672982876   10.85812046883771    6.37700548243697
C         6.62401249453263    9.39964926184432    7.66091675399492
H         5.89187417354105    8.59169583887431    7.67921480414504
H         6.21880314159847   10.21224431295545    7.05843210513833
H         6.77431106253052    9.76347843440372    8.68691056635533
C         6.88649683951592    2.65918073279477    4.14979315206784
C         8.06822330083482    2.26599601634904    4.77395019871184
H         8.89424851490733    2.96113061095528    4.83060506372835
C         8.20171537438135    0.99078783996491    5.28679360512292
H         9.12874824548165    0.69860067756616    5.76036023354620
C         7.16181047107362    0.07156147907602    5.19794808418199
C         5.98654692951645    0.46368765008148    4.57105133141969
H         5.16698778435114   -0.23630620158667    4.48913234145899
C         5.85064456049871    1.73588442117246    4.04776543358575
H         4.92729937921989    2.02756259060578    3.56855592410738
C         7.31364979605654   -1.30292314584950    5.77473900161630
H         8.26049019278732   -1.74481272305107    5.46933566407831
H         6.50329036467842   -1.95192465827391    5.45244308098044
H         7.30402370842890   -1.25735744989496    6.86415255036580

