55
CSD_code = FEYZAK | q = 0 | S = 0 | Stoichiometry = C25H26ClOPPd | MND = 5
Pd        2.48316194934480    7.42685498941544    2.80240508700088
Cl        2.98550099605152    9.13729479087594    1.32514899556417
P        -0.14989901014808    8.58580272315202    3.96221630054588
O         1.05086745378639    7.24205713044640    5.45549339869563
C         3.35614839222158    6.06300225860507    1.48966108039904
C         3.64500463210938    5.65395806695039    2.81295705327780
C         2.55567477145407    5.36714275163342    3.63314936042591
C         5.04261368262789    5.81464081217653    3.35661760781170
C         1.57568003721678    8.95100380109348    4.07124748250290
C         1.98125279074660    7.99234581219795    5.03457302379662
C         3.35333584975151    8.03885992806975    5.67273034974038
C        -0.90859726192682    9.81271858732467    2.84035655440796
C        -2.27107687833838   10.08235281939117    2.93344431796100
C        -2.86161527138560   10.99786578064596    2.08248845979380
C        -2.09891943285017   11.65188311159906    1.12837831182346
C        -0.74466547697865   11.38361513197471    1.02751636170675
C        -0.14722198239660   10.46875727251596    1.87759395258073
C        -0.46902501931261    7.00980293069971    3.10706594905572
C        -0.93800604842969    5.86909517989739    3.74516856380280
C        -1.11877525516284    4.70378205168034    3.01690758731615
C        -0.82317896089933    4.67163944979454    1.66382000258970
C        -0.33502449901840    5.80536255388061    1.02861801749489
C        -0.14957497893194    6.97944285703086    1.74327201059763
C        -1.11313495910074    8.79460879467570    5.48372725829906
C        -0.61301144197032    9.67122920691135    6.43865767118565
C        -1.31731432719780    9.89986604602765    7.60582823539004
C        -2.52847733473523    9.26178695280089    7.81968055855525
C        -3.03560814237661    8.39971152367735    6.86191230186850
C        -2.33402171773201    8.16536637225283    5.69210318665521
H         2.51777136087111    5.60470412062397    0.96240841291511
H         4.18011431216305    6.36943040811701    0.85044853388803
H         1.65273764510098    4.94814652321121    3.19926935302881
H         2.70355634032567    5.13613974438811    4.67996451368481
H         5.06675319267954    5.67128979183435    4.43581357596090
H         5.69660826361721    5.07363537137450    2.89501946254895
H         5.43879982662670    6.80665862250912    3.11193937118015
H         2.01332308892861    9.92339302616338    3.86772587448237
H         3.59251875791304    7.07988178507641    6.12705326476183
H         4.11362388630748    8.31927771228871    4.93245733487764
H         3.34052980460863    8.79412000166820    6.45948583964798
H        -2.87089304209007    9.58072182420741    3.67936827275536
H        -3.91935146890792   11.20200951197255    2.16483860337643
H        -2.56186322425019   12.36794014867776    0.46534294435273
H        -0.14479117356130   11.88508581337581    0.28310480040010
H         0.90931216806914   10.25878316855283    1.77321222205878
H        -1.11517791770054    5.88861341503382    4.80944143476045
H        -1.48138876401178    3.81449751488608    3.51152311627629
H        -0.96448223290016    3.75926171853548    1.10289580353164
H        -0.10468089977994    5.77800363514530   -0.02696778464115
H         0.19304021145516    7.88273831409061    1.23582316274519
H         0.33444804670633   10.16172784509322    6.25968183503733
H        -0.92322021988986   10.57556274265783    8.35064584153505
H        -3.07818566106016    9.43774086706119    8.73235249502546
H        -3.98315820972295    7.90716200017153    7.02567487861932
H        -2.73693664783752    7.49742468591042    4.94403779637981

