41
CSD_code = FIBLOS | q = 0 | S = 0 | Stoichiometry = C16H20Cl2PtS2 | MND = 4
Pt       -0.00209727277906    0.00018063022159    0.00028152958832
S         1.26559306643465    0.66692318692625   -1.87021282913706
Cl        1.22653585125635    1.20905475572319    1.53762467193773
C         0.02800360291603    1.89546325228211   -2.31327447824616
C        -0.30501220349188    2.89246101215009   -1.40713626492173
H         0.17290616847731    2.93236312092255   -0.43808998698601
C        -1.25702242377167    3.83530717821832   -1.75121639501100
H        -1.52102701428358    4.60961055355603   -1.04747882943544
C        -1.87236818942124    3.77150828953802   -2.99002750804549
H        -2.61982573751428    4.50214944301231   -3.26069264186347
C        -1.53910188306833    2.76656102418354   -3.88062283898472
H        -2.02964299540123    2.71688555414634   -4.84168885832144
C        -0.58399286045017    1.80850817283689   -3.56271072944296
C        -0.24217605160542    0.70511716718496   -4.51033101512784
H        -0.53750976811804   -0.25082270652950   -4.07863211213921
H         0.83126132217438    0.66797867715936   -4.69040263669873
H        -0.75854863127973    0.83388234289791   -5.45748764159931
C         2.63394191870176    1.75386025065600   -1.36167806032001
H         3.52881702405733    1.13866352737048   -1.36394380989245
H         2.46267399539426    2.14587195504037   -0.36276956026200
H         2.72089050466860    2.55043506888791   -2.09407496623501
S        -1.26858185124355   -0.66874772537149    1.87130009923399
Cl       -1.23208874654304   -1.20911738622029   -1.53672893259033
C        -0.02833957314376   -1.89511778974294    2.31316162273942
C         0.30676611181563   -2.89053644072419    1.40603741339453
H        -0.17121479279799   -2.93063071041325    0.43699255519648
C         1.26083307973730   -3.83165721316513    1.74913240344826
H         1.52659169650191   -4.60459397730839    1.04457445629395
C         1.87591427657345   -3.76792533595924    2.98806531556218
H         2.62481997332729   -4.49733512082972    3.25804978450985
C         1.54061171896110   -2.76451878949347    3.87959924021574
H         2.03098477013499   -2.71481648350692    4.84073370780423
C         0.58367574616282   -1.80799327702588    3.56255802424287
C         0.24017492449822   -0.70578702415559    4.51095184643168
H         0.53389264769233    0.25085051852031    4.07967165974692
H        -0.83327660207356   -0.67043196433513    4.69132134917157
H         0.75703049938746   -0.83421696935917    5.45789443869089
C        -2.63506341500134   -1.75852681272788    1.36373497834357
H        -3.53115642241490   -1.14525793102812    1.36605005313187
H        -2.46361108766420   -2.15069168696838    0.36505146900566
H        -2.72026137680801   -2.55491033656848    2.09641347656474

