57
CSD_code = FIJNER | q = 0 | S = 0 | Stoichiometry = C20H33IN2Pt | MND = 4
I         2.28717738942544    2.50127663754587    3.22594866047486
Pt        1.55373898677609    2.42638623494388    0.68859565961817
C         1.06502107849331    2.07008271668581   -1.16728063267971
C        -0.22902818645188    1.65694589685793   -1.45186420882447
C        -0.56297432066835    1.31498720215056   -2.75285238820291
C         0.41108355362009    1.36124596651169   -3.74019688391641
C         1.71581022458782    1.72972840305328   -3.44556484483421
C         2.04647492907513    2.08848436924578   -2.14778661125894
C         3.40244602888548    2.54234752903333   -1.67758413405334
C        -1.12909636355639    1.53730835273676   -0.25060547906928
C         4.03985136292729    1.06456765021046    0.11043462343164
C        -1.11302146025570    1.81243806100609    2.13468712772112
C         4.41388397320267    3.43381016584425    0.34500212757741
C         3.76633477256011    4.82011754347530    0.26549555030997
C         4.22420006485863    5.74799921417688    1.38877209555016
C         3.76026962659761    7.19268268917140    1.18416135722106
C         2.24573341888577    7.37228972832149    1.05606189489840
C         1.48993414127101    7.05120472953544    2.34318729895285
C        -0.02835469217416    7.18445015236609    2.19911705542996
C        -0.67611782959847    6.19463967689641    1.22519802433642
C        -0.39324428289541    4.74574685318734    1.60715765538526
C        -1.09709350824266    3.74615926500346    0.69224657524426
N         3.52038149404068    2.39910869294374   -0.19793240363279
N        -0.61288184705357    2.36342832268244    0.87471283806536
H        -1.56851094665919    1.00063041968250   -2.99696236217606
H         0.15224617604282    1.09061475612813   -4.75338318494157
H         2.46637462783288    1.73492130459588   -4.22415580149536
H         4.21538710178463    1.99046767812277   -2.16732930836999
H         3.51902370683500    3.59851242797783   -1.93464462354346
H        -2.16907365608260    1.81535911856598   -0.47131821566262
H        -1.12897610468487    0.48896611280159    0.06989898948802
H         3.38591076149252    0.30913710627728   -0.32923126906137
H         5.05155535741279    0.93367112164585   -0.29295716641487
H         4.07773547853668    0.91614345201272    1.19036326613992
H        -2.20759272367288    1.74807707877860    2.12597614435365
H        -0.69991114242816    0.81480090505166    2.28919940279498
H        -0.80626423820960    2.43645017417399    2.97086909766132
H         4.60652409677134    3.19427077316882    1.39360707957854
H         5.37467725782615    3.41815841713483   -0.18680151593637
H         3.97935470961936    5.29580732970670   -0.69467091795997
H         2.67719195964722    4.67173518361689    0.33521316966157
H         3.86055744847071    5.36857417743301    2.34371279626481
H         5.31640907428127    5.74365874394232    1.43071192724146
H         4.11865038840931    7.79247163398507    2.02349304808038
H         4.23055101471379    7.58324800762769    0.27717745667223
H         2.04500107327397    8.41200462994647    0.78374137534021
H         1.87820233828079    6.75055888827940    0.23997807662680
H         1.73685684776312    6.04779862515885    2.68501535949548
H         1.81991236772237    7.74203004389742    3.12262594410720
H        -0.47828167388486    7.04408391358837    3.18485668799163
H        -0.26674964400268    8.19895078390081    1.87021398786469
H        -1.75616364949627    6.36570029742443    1.22818715190630
H        -0.32165885474337    6.38217673301310    0.20993285700232
H         0.68489281068914    4.56286417975313    1.52162140144660
H        -0.68706986590881    4.59219767946029    2.64672376281167
H        -2.18361792001191    3.77600476680529    0.86027188700472
H        -0.90387273193099    4.02751748275637   -0.34834746171708

