55
CSD_code = FINWUV | q = 0 | S = 0 | Stoichiometry = C15H31BCl2O2P3Rh | MND = 6
Rh       -0.82279723955612    4.18840180984099   15.89238127762323
Cl       -0.12854764507366    6.37702991468183   16.19349496520530
Cl       -2.59884840279224    4.70976088749876   14.25899147928958
B         0.60382053679138    3.48607012907776   17.15166317546644
O         0.61568753662609    3.57792342607610   18.54043911458385
O         1.70004460038046    2.72501829051779   16.73584342435638
C         1.71249925897031    2.90353170101216   18.97029025523384
C         2.38053555143722    2.37681260951285   17.85779868937786
C         3.53728111806504    1.63819751807878   17.99591013476935
H         4.05237300254255    1.23605003015792   17.13790337309286
C         4.00682694660964    1.44069103483828   19.28726373728059
H         4.91068133589458    0.86930602123068   19.43521983958973
C         3.34405913577631    1.96145408402366   20.38903586765328
H         3.74251225191686    1.78691718757523   21.37696711496604
C         2.17991860671632    2.70522628425440   20.25259180105367
H         1.66489146496927    3.11447457906190   21.10709674275999
P         0.78790035223537    4.38758709977209   14.23386882654657
C         1.39210392154916    2.98956802171216   13.20048240607824
H         0.63063397423673    2.69812299170000   12.48239903030409
H         1.64460504160871    2.14580632756500   13.83885438213535
H         2.28219180034916    3.31021555254148   12.66049268823917
C         2.41524797751025    5.05898561192729   14.74718224997028
H         2.95372727314872    4.30427273489085   15.31450371151834
H         2.27689597743862    5.94417455558024   15.36290293687623
H         2.98243396222046    5.31945331297448   13.85355679168833
C         0.30859584470611    5.57694098870158   12.93367048324724
H        -0.61974075956894    5.24757811488489   12.46996252908335
H         1.10010734933316    5.64735273739551   12.18782955611418
H         0.13641894053306    6.54789296325727   13.39530147352000
P        -1.74500463912857    2.16021579536557   15.38122374569678
C        -3.55116283327105    1.94108320712266   15.61412443189820
H        -4.05373208926893    2.57151448586504   14.88303588101446
H        -3.86645035636955    2.23414219944866   16.61153790408480
H        -3.80640206073275    0.89495740546850   15.44422800522374
C        -1.10075646548222    0.69895386722706   16.30177825731066
H        -1.26680478070927    0.82989710847302   17.36915289763649
H        -0.02863182103850    0.62410324252602   16.13085696106879
H        -1.58703004664056   -0.21614125158343   15.96610917318378
C        -1.61631301627792    1.52549095028365   13.66942417636460
H        -1.85795893338190    2.33156494034807   12.97965441231745
H        -2.32967143462720    0.71159835309599   13.54071810312440
H        -0.61129257011944    1.15590061447014   13.48510846796884
P        -2.18913124050648    4.59907821239182   17.70589506922349
C        -2.57229974426320    3.28259384830097   18.93498201428432
H        -2.92901797992201    2.37034969419357   18.46514246282974
H        -3.32687133682267    3.64746726166709   19.63084835100082
H        -1.65648416966965    3.06033951713508   19.47753201039900
C        -3.83931310080633    5.25918071197483   17.27458950635088
H        -4.39029007775467    4.55718320676876   16.65432380908982
H        -3.68213902116883    6.16632441495662   16.69116688162367
H        -4.39967378520404    5.49025816162088   18.18033106394973
C        -1.63328595488516    5.89243147010413   18.87283849512766
H        -0.63768413018938    5.64608329726280   19.23373297700394
H        -2.33352207535946    5.94296613569209   19.70685912162505
H        -1.59263605096269    6.85124662950753   18.36060776295263

