34
CSD_code = FISJAS | q = -1 | S = 0 | Stoichiometry = C15H9Br3ClN2O2PtS(1-) | MND = 4
Pt        7.43246330696110   13.27666018411049    4.09536469411616
Br        4.96268643837329   13.34993250774971    4.11083024963933
Br        7.51947165123496   11.79029442838351    5.94491851903740
Br        9.88359691506227   13.33827329284628    3.85773421053883
N         7.33387704426285   14.58412129734482    2.61428098101998
C         7.48506751788135   15.91785166458131    2.85517136239108
C         7.80755172919517   16.49761746692981    4.08040593382129
C         7.92182190602140   17.86850110180969    4.15361729908768
C         7.71904519309704   18.66631426889951    3.02942205362545
C         7.39311189685339   18.10918047403277    1.80754509631263
C         7.27628855764632   16.73258347755817    1.72763761376222
S         6.87343997682235   15.74715451873662    0.35229371710418
C         7.01447666628208   14.31232069832493    1.36982075036328
C         6.81263979990541   13.00666849422276    0.86428297355990
C         6.36627401915672   12.76296595003466   -0.39006114905134
C         6.14619951732624   11.47735307246730   -0.99012659043304
C         6.60167788756969   10.28579381853302   -0.41594093626163
C         6.39046373400604    9.06818309446898   -1.03979820987303
C         5.70859968877264    8.98094694640580   -2.25350495272767
C         5.24970007185191   10.14300927809856   -2.83870044539798
C         5.46837171424947   11.36472196326528   -2.22425159622101
Cl        4.86517389213476   12.77223772389218   -3.02101066762847
N         6.89618997875138    7.86603913407402   -0.44033508602435
O         7.53781270062759    7.96106825582272    0.58678515476474
O         6.65929483993842    6.81140608468772   -1.00704151225471
H         7.96375850527926   15.86741572953034    4.94830825657927
H         8.17250590957164   18.33184669023778    5.09565225011214
H         7.81604640400760   19.73857344637411    3.11334153040571
H         7.23165806280904   18.72250258560199    0.93472042488790
H         7.01738985019849   12.20243925924243    1.56497684493522
H         6.13021538260455   13.61908300460404   -1.00920613913211
H         7.14007722545047   10.29742523886522    0.51890286027434
H         5.55779524838457    8.01722492180716   -2.71213964966931
H         4.72045676783752   10.10868992645970   -3.77819584161699

