69
CSD_code = FIZBAS | q = 0 | S = 0 | Stoichiometry = C32H29Cl2N3OPRe | MND = 6
Re       11.50241727592413    9.09121705381134   10.26562261249778
Cl        9.23798809756314    8.65899662344824   10.62248060015090
Cl       11.44436831107748    7.86303325197374    8.23776059974065
P        13.91306238549952    8.83658995669348    9.81614120931504
O        11.76150722659943   10.81214113279229   12.59285148696062
N        11.68769459538699    7.17967602952162   11.31694286626491
N        11.70813745592509    9.60005727624614   12.26798305178829
N        11.31078098761661   10.75482839875625    9.73666133058245
C        11.58719267272408    5.96100544026667   10.79293789245099
H        11.48685568365825    5.91281427527928    9.71621220806824
C        11.60567632957043    4.80905958619305   11.54871069547619
H        11.52293647767634    3.84897789324729   11.06680452503781
C        11.72736543821850    4.91973574814085   12.93168013096495
H        11.74900964800856    4.03643095869978   13.55262026615888
C        11.80366941895009    6.17119352663637   13.49226194948132
H        11.87710172752276    6.30119154563823   14.55916751678234
C        11.76961309278080    7.30501660984564   12.66307238164225
C        11.81211778509033    8.63953829537271   13.16216111579078
C        11.95813926251934    8.95953604868642   14.61921711427904
H        12.00708017686063   10.04208761454398   14.71901479184629
H        12.86788190000268    8.52014797532015   15.02751098707500
H        11.10368496501350    8.59195104558698   15.18580143337026
C        11.04081932395343   12.01516061071400    9.42480937662564
C        11.10608967027352   13.02488281105019   10.40983104165494
H        11.37818000566367   12.73380921662311   11.41302387809226
C        10.78981301207385   14.32037781372726   10.08028515874580
H        10.83124033956971   15.08720418701934   10.84027622312580
C        10.40806898115462   14.66937898614195    8.78381713574555
C        10.34425795701839   13.67151304879044    7.81385288400591
H        10.04111359706780   13.92600996901597    6.80836773106298
C        10.65371130210710   12.36520670415570    8.11454473755176
H        10.58727452827873   11.58535068863306    7.37067547996328
C        10.07838964523749   16.09049322962181    8.45698028023924
H         9.66809677365758   16.17893983911305    7.45462863875767
H        10.97504623845397   16.70726887927214    8.52014893337552
H         9.35649156702195   16.48561844489287    9.16966032986375
C        14.46218384405643    7.15473947945113   10.20055780264664
C        14.33416400106258    6.14184581068277    9.25402415744515
H        13.97925232970556    6.38307184710534    8.26177518807429
C        14.63834925559203    4.83724342640310    9.59869732860184
H        14.54422374462330    4.05290339862343    8.86241133633477
C        15.04827220529421    4.53388917633093   10.88693580349563
H        15.27928336398699    3.51343987628070   11.15425131267019
C        15.15092639666688    5.53675742862935   11.83821370187352
H        15.45596340286571    5.29813366218219   12.84660817840493
C        14.85528243089186    6.84394417645467   11.50072248276621
H        14.92261854635284    7.62995289382851   12.24192267255130
C        14.46579629027099    9.15970225847817    8.11410962229846
C        13.76899337728067   10.10131747213020    7.36548827030381
H        12.88420238240090   10.55676794347578    7.78880827570490
C        14.19388997422495   10.42523930394982    6.09072561487975
H        13.64461893085262   11.14948147785753    5.50792369986305
C        15.31936896241404    9.81560198060425    5.56045944007681
H        15.64801976798133   10.06128208853105    4.56155691679042
C        16.02325178014937    8.88746237320598    6.30995991016622
H        16.90189864466768    8.41339414038738    5.89741331150143
C        15.60476945008410    8.56062484399332    7.58714188814104
H        16.15721066905565    7.83301245646024    8.16496643828651
C        15.07339772604613    9.91229894879625   10.72002378724114
C        16.41859755275747    9.57925979955712   10.85306766008918
H        16.78489655558225    8.63749666403550   10.46856845552832
C        17.28289615448929   10.44972184513146   11.48950851740705
H        18.32517122204818   10.18690993861503   11.59819161804001
C        16.81493488792459   11.65611151445369   11.98803344611584
H        17.49496326039050   12.33009632909783   12.48777238736798
C        15.47962106234804   11.99425521926646   11.84629486974559
H        15.11156828685003   12.93134378420573   12.23554504621540
C        14.60817064253187   11.12769845062256   11.20955774055622
H        13.56106904284946   11.37775927567473   11.10954452424475

