41
CSD_code = FIZHUT | q = 0 | S = 0 | Stoichiometry = C12H16Cl2N4O4S2Zn | MND = 4
C         1.41624319094805    2.63301563759592   -1.28684557577588
C         1.00934976332325    3.03733046968523   -0.01691680751805
H        -0.03135281115033    2.95595570267759    0.26193270393248
C         1.94510339362848    3.51378779763326    0.88281026939048
H         1.66595826239473    3.80947281663012    1.88153484908727
C         3.27269915254190    3.58856744314771    0.50801558438609
C         3.68859930672006    3.18561002328584   -0.74475507379761
H         4.73837887325716    3.23573512032938   -0.98551696013508
C         2.75777214871062    2.70583652431845   -1.64870135631929
H         3.07078648097836    2.36579847578313   -2.62489311893923
N         0.46395964720606    2.07901863362359   -2.18247237866965
H         0.77197781962042    2.14617612985104   -3.14778318976650
H        -0.45084119443344    2.50885646382306   -2.06796294937875
N         4.38419773057830    5.90413199771129    1.39919931828878
H         3.51762584885063    6.32408638181191    1.68672799125238
H         4.69953896212270    6.20471940834663    0.49361647381839
O         5.78423720787097    3.85429415122955    1.24720695094558
O         4.03019005691648    4.03032585314664    2.99395479931876
S         4.47499456129999    4.25449251345603    1.65604787333907
Cl       -1.90735970926220    0.63480945224641   -0.43999762869441
Zn       -0.00038655249586    0.00076810010231   -1.28430663067595
C        -1.41650173332922   -2.63224611891915   -1.28590880819907
C        -1.00975794063903   -3.03596419740251   -0.01575590165162
H         0.03082313111923   -2.95383764022051    0.26339366252829
C        -1.94544381485932   -3.51297350599097    0.88372416650434
H        -1.66638519636051   -3.80849213435181    1.88256058574801
C        -3.27282903939712   -3.58888260473705    0.50847946816382
C        -3.68862219770257   -3.18638282045470   -0.74445353695046
H        -4.73830514892557   -3.23730632646245   -0.98554659613235
C        -2.75786411225382   -2.70604694955486   -1.64816107136222
H        -3.07082243850927   -2.36630821276203   -2.62450081182718
N        -0.46427756504888   -2.07796348227276   -2.18142885467974
H        -0.77196459687013   -2.14563010164524   -3.14681055025951
H         0.45073818284405   -2.50723698789404   -2.06649477764284
N        -4.38305476608374   -5.90543339119311    1.39859678865891
H        -3.51627013011991   -6.32494219353583    1.68612878989735
H        -4.69801387355691   -6.20586720194413    0.49283038567444
O        -5.78436676301147   -3.85643753400083    1.24707424270185
O        -4.03057781571473   -4.03197395192666    2.99412107860862
S        -4.47494411311345   -4.25594742315645    1.65603001315136
Cl        1.90676779194313   -0.63291631801938   -0.43997341695152

