43
CSD_code = FOFPEW | q = 0 | S = 0 | Stoichiometry = C22H17ClS2Ti | MND = 12
Ti        8.38473012751119    1.33693930613852    0.57515049197857
Cl        6.59175363211812    1.79831458736679    1.80463384180426
S         9.79087839701321    2.82294688003113    1.79280947538096
S        12.70588126074386    1.95840264261232    3.04817921487625
C         9.95796190814517    2.27463793795124    3.45588732738431
C         8.87336881449893    2.23020418461559    4.32333411185461
H         7.89575766679587    2.50030629773424    3.94989516797637
C         9.04068406968232    1.84739229465180    5.64782989743405
H         8.17933262284000    1.81728100048618    6.29803708929614
C        10.28634257630753    1.51280900767223    6.14217831331187
H        10.40808124506835    1.21635143033557    7.17254763240387
C        11.39354323635945    1.56555132864853    5.29973358473597
C        12.77366955705884    1.27300786579373    5.59044923656468
C        13.35069776429332    0.86822314002905    6.79083091727731
H        12.73216353381332    0.73528156501084    7.66548157423830
C        14.71024612553732    0.64194913933015    6.85107588202000
H        15.16060355012605    0.32872251336297    7.78107899271753
C        15.51092417797628    0.81383098948224    5.72569053662431
H        16.57317454321612    0.63294528395178    5.79256028878587
C        14.96163462550546    1.21503306433541    4.52346461482694
H        15.57514435223921    1.35230348706289    3.64665814453376
C        13.59647423733285    1.44214394778620    4.46413588618694
C        11.21574852845448    1.95027085212546    3.96124926404802
C         9.92881482555410   -0.18176495617611    1.50335485874980
H        10.86068606212447    0.05907168458933    1.99691608912497
C         8.67908555917796   -0.38722805431753    2.12762077633062
H         8.47314993245615   -0.30213769800288    3.18749936186297
C         7.77881418516770   -0.86864521255763    1.14940851515930
H         6.76470818478620   -1.20089491547469    1.33559863850421
C         8.47021662113505   -0.95730667403861   -0.07166993583070
H         8.08648632882974   -1.39588888584263   -0.98360859760710
C         9.79610003094618   -0.51913234547207    0.14277467012305
H        10.61189213631896   -0.57272290995599   -0.56606869933628
C         7.04442904876230    2.66400839978482   -0.90416030447983
H         6.04225387596072    3.02100832084957   -0.70523270546749
C         7.37883633539802    1.45615362605600   -1.54969417344081
H         6.66904704184113    0.75096795683010   -1.96458426369950
C         8.77909328588279    1.44234117678288   -1.74647190962279
H         9.32457553635898    0.72934146942622   -2.34885715242439
C         9.31376054320881    2.60155164188497   -1.15975950422199
H        10.34643456085461    2.92482564086506   -1.20303989341843
C         8.23401168398781    3.36394446364917   -0.64311483637463
H         8.30820766862163    4.35415852459254   -0.21130242019991

