35
CSD_code = FOHJAN | q = 1 | S = 0 | Stoichiometry = C6H20Cl2CoN4O2(1+) | MND = 6
Co        3.35696989898545    4.31941155729759    5.96170905539539
N         3.94192631205717    3.53158580345124    4.23896085679313
N         5.14971555514196    3.82096104664558    6.64365376637581
C         4.51603139627021    2.17889322589461    4.20546593166979
C         5.85194439908462    2.17267135664848    4.96349807130838
C         5.64639553657275    2.45045219880013    6.45456417619795
O         6.69733734287240    3.19244273969178    4.46937469041390
Cl        4.27104544824336    6.21978216953099    5.26645223989824
H         4.68102778050669    4.17440592389130    3.92604961144605
H         3.20662462362751    3.57549402681901    3.53374498546313
H         4.69308521884018    1.87489882287991    3.16756119040707
H         3.82430388499815    1.47331956801521    4.66615731895861
H         6.31366458200757    1.18381558209803    4.85889769415207
H         7.16490134479919    2.89692797399036    3.68255003348935
H         4.93428063500700    1.73865158643770    6.87261185729838
H         6.61106267746311    2.33450353944472    6.95861577463502
H         5.80085090015212    4.43385191193832    6.13781148128000
H         5.25757478675822    4.04914235529924    7.63181242895277
N         2.77206745763869    5.10752404588522    7.68432171127647
N         1.56432917648686    4.81813934436889    5.27962809257020
Cl        2.44232496294916    2.41923245803050    6.65657013133595
C         2.19797710881249    6.46021828461854    7.71780242709609
H         2.03295942311937    4.46470270609614    7.99720963649913
H         3.50735024734203    5.06359662939273    8.38955360709222
C         1.06764780583003    6.18865656853543    5.46872146536811
H         0.91317274364123    4.20524463720325    5.78543608716374
H         1.45648032349404    4.58998810092306    4.29146285627984
C         0.86205798268547    6.46642426290514    6.95978677754337
H         2.02091503170115    6.76420358960408    8.75571211162927
H         2.88971882688507    7.16577724886417    7.25709469547892
H         1.77977958653600    6.90045845259413    5.05069142748970
H         0.10297530418879    6.30461728575084    4.96467369217569
O         0.01665342838658    5.44665898305263    7.45390850940762
H         0.40033765121023    7.45527840682657    7.06438446867297
H        -0.45088938429555    5.74216760657415    8.24075113878579

