66
CSD_code = FOJVEG | q = 0 | S = 0 | Stoichiometry = C22H38ClIrN4 | MND = 5
Ir        3.52649863231038    0.04751337811625    2.94246315118156
Cl        1.24193962582758   -0.07289020133416    3.87264222197528
N         2.41640524597899   -0.57730337974827    0.36857463285891
C         2.74348459817210   -1.15081871705599    1.54221716271038
N         2.29555149969113   -2.42212837246669    1.46859454672553
C         1.76623105859619   -1.46579113936408   -0.43685826174717
H         1.41292676267907   -1.22714994118819   -1.41828566385455
N         5.79629338345224    0.98945489000845    4.40723037586154
C         1.68070569967416   -2.62248809603772    0.25742242220560
H         1.23197157875518   -3.55154838942309   -0.02360785023556
C         2.78822609267614    0.79811520265687    0.08482581616895
N         4.26509524561892    2.19611606974299    5.31338022650479
C         3.15744136760520    1.45235507424213    1.43314089577114
H         2.28885662909384    2.01946485243531    1.78046926654057
H         3.97616627517595    2.15833631890837    1.27754290912374
C         3.97209903174042    0.78156854865783   -0.88778415760919
H         4.27308626745318    1.79771519365412   -1.12524221513419
H         3.70051031503683    0.27506041717283   -1.81213528511292
H         4.81048028062289    0.26048751238413   -0.43656166101175
C         1.59919491621023    1.52790913310634   -0.54868601816873
H         1.37889292453150    1.14202412054863   -1.54180100490899
H         1.82737042995872    2.58642307850067   -0.63750669612815
H         0.71834969896396    1.41206562914560    0.07785258820435
C         2.32645783684985   -3.42887962244113    2.52588470916678
C         3.38825697055789   -3.05841761921458    3.55856831459308
H         4.37506897301701   -3.06488166564162    3.10169348965198
H         3.37309718243707   -3.77459251780290    4.37700609981904
H         3.18042473898941   -2.06747989703570    3.97378789245982
C         2.68382895763233   -4.79223532658532    1.92028246836336
H         1.87090022253368   -5.19259682511356    1.32029287971118
H         2.88664854939642   -5.50110368556473    2.71891015259382
H         3.57238074109791   -4.71061734181536    1.29684902261860
C         0.94422041238935   -3.47197802506943    3.18344143871890
H         0.71062738585717   -2.49531428452764    3.60325818582399
H         0.92594508755986   -4.21162276088863    3.97955191637570
H         0.17825490718742   -3.72516166660790    2.45332569557874
C         4.46793696302348    1.25122716679901    4.35888516565749
C         6.40879640328117    1.71932294641442    5.37854715049185
H         7.45438229749297    1.66061995819405    5.59718834633259
C         5.44650553788501    2.47838732451464    5.94764578734280
H         5.54153917065558    3.18215126690451    6.74511168957474
C         6.41946866494410   -0.01127492439492    3.55530993672342
C         5.50381605632017   -0.18153451471349    2.33469067538980
H         5.70915054833696   -1.15969231250568    1.88724419877141
H         5.81608447810275    0.56131583382295    1.59628163724864
C         6.54092902103098   -1.30430790777259    4.37114453948648
H         7.17347884672375   -1.14767448293534    5.24435711872756
H         6.97863134676440   -2.09345196608766    3.76523469904668
H         5.55899601014888   -1.62477927663290    4.71284826988648
C         7.81394434251573    0.45995718944963    3.12750168086932
H         8.51959501056001    0.44745511946450    3.95616638159233
H         7.76250079614963    1.46846150961549    2.72318541636224
H         8.19263923467815   -0.20276330269762    2.35352027174725
C         2.99140028665575    2.81084343410758    5.70426847898958
C         3.24332663558027    4.08597223635104    6.51718694108350
H         3.90825587288613    4.76439261345294    5.98604865426282
H         3.65608315138959    3.86761435163413    7.49977533214244
H         2.29408264862824    4.59337207377276    6.66844763187769
C         2.19822411256257    3.18193375038636    4.45430088016637
H         2.80550478037463    3.78189297390217    3.78094140207419
H         1.31334311228707    3.74686120523040    4.73360226378065
H         1.87960106363245    2.28258655290242    3.94291181071941
C         2.21448045949676    1.80708725245890    6.55924727850089
H         2.81850073181436    1.47078318085983    7.40085330505671
H         1.92972812766206    0.94895598247421    5.95655253728691
H         1.30838476308271    2.26857482066327    6.94176085137919

