47
CSD_code = FOQSAH | q = 0 | S = 0 | Stoichiometry = C18H21Cl2N5Zn | MND = 4
Zn        3.09266848078025    3.31444836297623    7.12452856978603
Cl        2.85426761583972    1.11589074424998    7.15728198047586
Cl        2.75586555104353    4.74675633110891    8.74699302961964
N         6.23413800286437    4.11655595265009    9.13025114975767
N         6.63861505277875    5.02430222244976    8.24409185273582
N         6.84709383539124    6.13168432273264    8.84697939481028
C         6.58341114704981    5.98417112215730   10.16648170404314
C         6.18162364183465    4.66966487093595   10.35595906087671
H         5.87119442986309    4.11800185485129   11.21668085806671
C         6.73405548042222    7.06981494760368   11.11850718178289
C         6.52270742779217    6.86889334241423   12.48088040767327
H         6.24004085141262    5.89240741646744   12.84475971531142
C         6.67336351476114    7.91708866672814   13.36891443705962
H         6.50702777761576    7.75404951656613   14.42406722623418
C         7.03555110612272    9.17347442093776   12.91151937706361
H         7.15116239433354    9.98993424505442   13.60933392641126
C         7.24793620779755    9.37946819907060   11.55763505964244
H         7.52956725510434   10.35878239199426   11.19859750145627
C         7.09916568007297    8.33613674193520   10.66493107822087
H         7.25989909632002    8.47928596951236    9.60752932901230
C         5.90852581936702    2.75735857049068    8.76864235117008
H         4.85787437692329    2.57628691419889    9.04016667630177
C         6.78806841392454    1.76938563232421    9.50098464944700
C         8.12782202419844    2.04856003311130    9.73606934005032
H         8.55009131260081    2.98903222297900    9.41144751556350
C         8.92521709142653    1.12743328375684   10.39227823159083
H         9.96440740061527    1.35480707830210   10.57730771349760
C         8.39219666823638   -0.08029999888324   10.80893049567523
H         9.01505747659996   -0.79699885463125   11.32280374634054
C         7.05905216825728   -0.36660182380041   10.56648055665797
H         6.63990548115851   -1.30789629248668   10.88827478322591
C         6.25827829005865    0.55511590079024    9.91593007409117
H         5.21848186893193    0.33477520897422    9.72436165644486
C         6.05549763324165    2.57149665241131    7.25512748906984
H         7.10304388380077    2.73511014800109    6.96957225632677
H         5.76873629090114    1.54629411695418    7.00883231781803
N         5.17025548045991    3.49391456585087    6.54589920055905
H         5.51854157100253    4.43257103865071    6.78361000278726
C         5.21053672923818    3.33044984086178    5.09723163500299
H         5.00846325725025    2.27968023262532    4.86936763877407
H         6.19023955097380    3.60124504520875    4.68485551526754
C         4.12674415146752    4.20202717529446    4.46780964000216
H         4.29148723784449    5.24248671121278    4.75816356922973
H         4.18182829282716    4.12683895902140    3.37508543940594
N         2.81598909646154    3.78897446521526    4.97590890261423
H         2.55867618009427    2.89299213120767    4.56740143824923
H         2.10282770283944    4.46244939996463    4.71393432480470

