46
CSD_code = FOZLAH | q = 0 | S = 0 | Stoichiometry = C12H28Cl2N3V | MND = 5
V        11.70161312692492    2.29576861279756    1.02566936786543
Cl       12.14903765296334    1.28566512876898   -0.77412153152571
Cl       10.18940346448506    3.51376416662216    1.85426457080894
N        12.95275574751090    4.03753396594471    0.44116085148624
N        12.98880051311792    2.04329148840478    2.19824003822136
N        10.85478753677638    0.47395134593126    1.97745512929179
C        12.86840873877441    4.39399860323700   -0.97807877746271
C        11.44103052262146    4.71121255473619   -1.40979857411723
C        12.68181587338503    5.19374628612087    1.30871216325471
C        13.68834643212027    6.34686513576471    1.26129068806655
C        14.25485541409622    3.43401420830689    0.74714298184472
C        14.22090463032128    2.76891002453209    2.12546057276604
C        12.85304561952295    1.10228954576347    3.26871145598237
C        11.37206860371021    0.71970731592975    3.32849915455461
C        11.43843396179782   -0.74340241406097    1.39405190426714
C        11.21655577014654   -2.05292779869474    2.15617901686042
C         9.39001544534699    0.42154410296432    1.98623216167879
C         8.80149628451628    0.49660261402444    0.58175172034408
H        13.53299277597662    5.23764904013214   -1.21323300268518
H        13.20889576584257    3.52780783888282   -1.55184208987249
H        10.77086544908486    3.92722223985674   -1.04576740690600
H        11.10084409351114    5.67241526287324   -1.03088320886318
H        11.38716138180515    4.73526867098114   -2.49574260445662
H        12.61334408576269    4.82805201488694    2.33579322779087
H        11.69640145061269    5.57907504789278    1.04263041538704
H        13.80228918522415    6.74747063847084    0.25722282337679
H        13.31815050503457    7.14693372475977    1.89790157403333
H        14.66579874467191    6.05174797255833    1.63475459794497
H        14.42887800192945    2.64660054598428    0.00797255179732
H        15.07116799506872    4.16539659319961    0.67618129352584
H        14.30300720924742    3.51408659195563    2.93675699188519
H        15.08718116800800    2.09184744797747    2.21836022336071
H        13.14644342221407    1.55166293050190    4.23282404247841
H        13.49441907814700    0.21608467474452    3.11540226508089
H        10.82810492411273    1.57853872104438    3.73250902603004
H        11.20797345051043   -0.14026487334511    3.99174355675349
H        11.03136474333663   -0.85191758338288    0.38763989159818
H        12.51256204557231   -0.57632104224645    1.28615187257684
H        11.64819420708250   -2.86256446864553    1.57256895920287
H        10.16046396230536   -2.26998348914975    2.29456020603659
H        11.70451384313584   -2.04827673375933    3.12770755114094
H         9.03677755586478    1.29153731497526    2.54640129124806
H         9.03061716810932   -0.48079864716559    2.50135909540161
H         8.94006760609192   -0.42923443147102    0.02780965917095
H         9.27788648629804    1.31469384661638    0.03390201716157
H         7.73475835730112    0.69853526377817    0.64539228561196

