35
CSD_code = FUGJEX | q = 0 | S = 0 | Stoichiometry = C6H18Cl2O6P2Pd | MND = 4
Pd        2.49501039867199    1.86476802322142    5.96744747370025
Cl        2.58945881337880    3.89526736364406    4.98971420749095
Cl        0.83822225317596    1.19212837362256    4.59282060171721
P         2.43020854315333   -0.17662625795459    6.88636546658278
P         4.09970849600002    2.57730752659524    7.35788182762379
O         3.62686746206150   -1.02323039140746    6.24479769015854
O         1.27064972043923   -1.28235065198900    6.73116818061073
O         2.78864756822595   -0.20585002123455    8.44799734591401
O         5.09466254566039    1.42558371328009    7.86056656710732
O         3.38786301263800    3.03134818530834    8.71671152215826
O         5.05429178543456    3.85961975053954    7.16803032435969
C         3.91083721532681   -0.81992620253599    4.86363000582911
C        -0.08907935903497   -0.95755062665283    6.99891596350813
C         3.15750469001813   -1.42627488587127    9.08670337871650
C         5.90818591149051    1.62233634446500    9.01507306600908
C         2.12158380015491    3.67636198551044    8.61397822913445
C         5.79828975529296    4.03887162438096    5.96801726773811
H         4.87325567240655   -1.29175881465659    4.67000213716084
H         3.97304184725652    0.26393259348683    4.62721837622391
H         3.13641817258285   -1.27603922381130    4.24301859370929
H        -0.22312371288150   -0.67552060426298    8.04549617000221
H        -0.66404867124424   -1.85571675573934    6.77961526682582
H        -0.41312439029449   -0.14196144356144    6.34836836971409
H         2.97339935316598   -1.29130777797995   10.15189619548222
H         4.21375153357990   -1.62768818253152    8.91083249481704
H         2.56360138890813   -2.25781607812958    8.70500886760567
H         6.28290329233371    2.64603224718930    9.05469105812259
H         6.73848476367702    0.92135749519546    8.93740623477193
H         5.32628086630450    1.41692588372540    9.91309445774776
H         2.23930396838968    4.69039937313714    8.22555644488291
H         1.70401896123680    3.70567186238387    9.61953633253522
H         1.44107292065212    3.10827565538007    7.94438668579282
H         6.33156642054273    4.98149102740910    6.07948969723302
H         5.11990281368315    4.09535787184510    5.11341376946843
H         6.51008218760939    3.22268101798310    5.82554972955349

