65
CSD_code = FUHSOS | q = 0 | S = 0 | Stoichiometry = C31H29ClNOPPd | MND = 4
Pd        4.75501463459292    7.42423795995876    1.47429599779328
P         4.09533696486226    8.30580557848035   -0.46219495733577
Cl        6.63449213816147    8.78998035417482    0.96854191418883
O         6.99245307572516    4.18239495612645    2.70698222761475
N         5.46395960018690    6.89895624626535    3.38248069927457
C         5.19673584868307    7.89108684944962   -1.84258188308217
C         6.04057412941897    6.80494984443589   -1.63943345577638
H         6.01724184941163    6.30301526601166   -0.67013711645745
C         6.88445872514203    6.38341556450020   -2.64963771740713
H         7.54796853470942    5.54663156275013   -2.48889718811865
C         6.87648098019960    7.03848289844913   -3.87058242487238
H         7.54213476421230    6.71928494747650   -4.65919224383597
C         6.00414945543524    8.09280375387588   -4.09005319946358
H         5.98394009660246    8.58475557970885   -5.05187475480494
C         5.15251006641493    8.51414851794847   -3.08465168334649
H         4.44574936675256    9.31154555670014   -3.26884371093814
C         4.10264280907328   10.08614497068113   -0.08766617738234
C         4.63147159450226   11.09854091762925   -0.87445489931342
H         5.09600318256582   10.86774855414480   -1.82091371619173
C         4.60102652094147   12.40676583913702   -0.41962372732924
H         5.02257859261490   13.19316849811596   -1.02872893586844
C         4.04662045800216   12.70884129656563    0.81193985164156
H         4.03099059625421   13.73086393143079    1.16106086060015
C         3.53042698820758   11.69727936010812    1.60834373702010
H         3.11470329562898   11.93085558601357    2.57803807425749
C         3.56346920796115   10.38993410127957    1.16421694193606
H         3.17821478290075    9.57538124245244    1.78767757322064
C         2.51345167785470    8.09538907790555   -1.35602139210911
C         1.61324224782288    9.12661022570681   -1.58655199685641
H         1.81602774203518   10.11696408494035   -1.20271936759824
C         0.45507725168398    8.88179811102734   -2.30589307119357
H        -0.24324591912548    9.68629846580446   -2.48572345896072
C         0.19041189262289    7.61320863448928   -2.79225023058609
H        -0.71458515206086    7.42777705360226   -3.35170793855312
C         1.08402709913582    6.57845971983674   -2.55730165686357
H         0.87427128888059    5.58694649929038   -2.93066954127951
C         2.23998378619072    6.81868446030091   -1.84198585082038
H         2.94230489392526    6.01981044650893   -1.63456142878388
C         7.36309317105087    3.45603400091628    1.63858419803513
H         7.25984892510918    2.39155654720196    1.71333556849901
C         7.80609752384386    4.26265158593500    0.63924821413611
H         8.16795118661081    3.95537848370935   -0.32039951370002
C         7.70077977486810    5.58935311440907    1.12895149160267
H         7.99876022767035    6.49527026767899    0.63832682105152
C         7.19114793589636    5.48797669331115    2.39235238145600
C         6.89124822981352    6.54183643698634    3.40664021223941
H         7.47031751855708    7.43227608741318    3.14323561364290
H         7.17751130337241    6.19600240240846    4.41219180468407
C         5.23706326164736    8.13438357539297    4.13381903142552
H         4.16312654194843    8.34934390600930    4.16712716710858
H         5.75701358871553    8.96436993241813    3.64324571287154
H         5.60840621705813    8.04153393474409    5.16479496748192
C         4.64173140277087    5.81244100252309    3.93549430740740
H         4.65117294470174    5.84749428798042    5.03642658857722
H         5.07141093008590    4.85261005908162    3.63062198891877
C         3.24518711971876    5.90938376044886    3.38415443179092
C         2.16372411804503    5.38865316545917    4.07896844442449
H         2.32258890518239    4.91688797194403    5.03981185298329
C         0.88862836556862    5.47524885380285    3.54907990353783
H         0.04705633526804    5.06823344742883    4.09065438615978
C         0.70345894987247    6.09717565014625    2.32850676885168
H        -0.28904047960350    6.18314160286348    1.90845231927826
C         1.78645267441781    6.62150447220603    1.63708180233437
H         1.59792521644749    7.10825171083155    0.68853554644883
C         3.08162304319828    6.52274053350300    2.13373383632182

