64
CSD_code = FUMNIK | q = 0 | S = 0 | Stoichiometry = C16H42ClReSi4 | MND = 5
Re        2.70200676703921    2.19179172006623    2.97039839205408
Cl        4.09454286501829    0.57704315574396    2.85973122952432
Si        3.64429300961769    3.39016381814647   -0.12493032383550
Si        0.02327344686250    0.03607888819500    3.22971999126538
Si        4.18120821158762    3.44530844677567    5.82163892220404
Si        0.26641659867262    5.01204390135973    3.15617349987023
C         2.38499737125822    2.27957544157808    0.79469679265314
C         1.27324723871089    1.08807667326564    4.22760028637028
C         4.13247911303643    3.57270575892634    3.91215736447810
C         1.49208181525210    3.59500005100146    3.06442277144330
C         5.44518118929464    2.79464181237531    0.11093963535258
C         3.45321174354008    5.19957633620641    0.46176703505657
C         3.22535549836030    3.27653874232737   -1.98905246531379
C        -1.07599577913251   -0.87721158717165    4.50273630298799
C         0.88670199613084   -1.28132312196109    2.14689537508038
C        -1.06708998632098    1.18128095729574    2.15544084530803
C         5.53060719484310    4.66172682693476    6.42393414096526
C         2.48818729091009    3.96533028471901    6.54109080656025
C         4.65761162570838    1.69460517439304    6.42291234911418
C         1.18104789843716    6.61266557308446    3.67201402592779
C        -1.08364661007488    4.59926947502704    4.44925776051133
C        -0.54310101805121    5.26070741303081    1.43920555799005
H         1.36999126464680    2.54863502978876    0.49677068756440
H         2.54637016593675    1.23496678483377    0.50594301810867
H         0.74113096382230    1.70509001280828    4.95391055318875
H         1.94006910628349    0.42233986324090    4.78677688690903
H         4.01552323004870    4.61657100891760    3.61528286883620
H         5.08477053676998    3.21862287461480    3.50181123342826
H         5.74002885970085    2.83272101451061    1.15558182112299
H         6.14452123608569    3.41169689545687   -0.44623454106504
H         5.57122691742424    1.76997223243095   -0.22945140147841
H         3.11691864148246    5.22024824595834    1.49468787865289
H         2.72174653313631    5.73116766678718   -0.13765633046458
H         4.38877987770164    5.74546488711357    0.39259774906674
H         3.88358742599419    3.91722192397862   -2.56617615830163
H         2.20589807371423    3.59233631163727   -2.18437978425461
H         3.33520928284300    2.26650385244727   -2.37137988643904
H        -1.58408234132987   -0.17825163312410    5.15885189780732
H        -0.50194170039308   -1.55530585411848    5.12643875512628
H        -1.83552412832126   -1.46343085988758    3.99652226487509
H         1.50700083210926   -1.94222040747903    2.74708478463844
H         1.52520098590828   -0.82097287925137    1.39850879860168
H         0.16470577883761   -1.89998843365142    1.62130821315921
H        -0.50621817969925    2.06726854606830    1.87122586802479
H        -1.94896362271583    1.50483042595534    2.69811220612649
H        -1.40566946578283    0.68295017500372    1.25254818867907
H         5.57435291802051    4.67421358599341    7.50779886129886
H         5.32590198301796    5.67425287152761    6.09211625675227
H         6.51681353621737    4.39008528784057    6.06055815632916
H         1.69510986125400    3.71020383530464    5.84372512218976
H         2.44831416258533    5.03559024115663    6.71419707784386
H         2.28600021207936    3.47513579236497    7.48816472009306
H         4.74365869899359    1.65524931276964    7.50521157082306
H         5.61190845140488    1.37969395550616    6.00828162812233
H         3.91310645570330    0.96014987188754    6.12966341779706
H         1.79104613125893    6.44212688188661    4.55311292991593
H         0.48152890617803    7.41163553565974    3.89947231318743
H         1.83618792215021    6.96437231435775    2.88127017641312
H        -1.90536563890365    5.30753884682128    4.40285937676195
H        -0.68391387977522    4.62522454621374    5.45782237662161
H        -1.48844619834588    3.60677221098187    4.28114047309839
H         0.21103185051310    5.31218437068212    0.66086671415024
H        -1.12249526716891    6.17838605459353    1.40431441030438
H        -1.21123786008682    4.44075105909326    1.19638855081407

