35
CSD_code = FUQGOP | q = 0 | S = 0 | Stoichiometry = C16H10BrN4O3Re | MND = 6
Re        8.32155971381400    2.32608151902379    8.93980092731032
Br        7.22776898971983    1.83582688947008   11.21437691748793
N         9.03126804086254    4.07262195857146    9.92821466897356
O         6.70910431109964   -0.05503896735579    7.80307519743349
C         7.35036337268885    0.81389768631603    8.18227875250656
C        11.05568676584638    6.16764655113042   11.99927582024505
C         9.82852058751075    1.17804350404873    9.40380269688884
N        12.15807092865147    5.41597315228519   12.04205833698601
O        10.70706157774887    0.53459318717711    9.75999651626836
C         5.50712248248882    3.57402471376624    8.16697159447502
H         5.39722641276417    2.64035514316958    7.63051221188031
N        10.10999902920498    4.41129047891855   10.60825225485156
H        10.92365148170702    3.81646301952682   10.69355072290174
C         8.71565100760916    6.08564522444028   10.86270791064761
H         8.25943830348348    7.00851705902275   11.15237794530433
C         4.46102621189831    4.47613772450375    8.23004946533732
H         3.52639455081230    4.24862348756572    7.74404463218341
C         9.97607098426170    5.62133370409258   11.20007470399700
C         6.85979432984730    4.93498321571835    9.43154766011884
C         4.63810649507165    5.66161265019873    8.92989761862754
H         3.84051100687901    6.38469302373651    9.00344449006169
C         5.85650161535008    5.89466568451369    9.53674856796653
H         6.03950928548464    6.79727119053266   10.09679126598144
N         6.68218231110438    3.78659575031775    8.75055300832882
C         8.15578424111850    5.07718226565759   10.06354278213189
C        10.94972120132639    7.38362662189910   12.67352364962294
H        10.04245088214154    7.96324744529718   12.61888803307325
C        13.17747901285171    7.03679163129392   13.45888008287053
H        14.04159009778159    7.34273762376870   14.02643909649316
C        13.18282606411371    5.84192317892969   12.75190336822197
H        14.04833698011683    5.19284331970134   12.75203539066981
C        12.03397495273424    7.81951587560355   13.41468500427202
H        11.98703326111789    8.75561050745826   13.95141619994268
C         9.07315820317375    2.84250655779170    7.22689680311465
O         9.50775530761864    3.15225742191446    6.21098570281593

