28
CSD_code = FUSYAT | q = 0 | S = 0 | Stoichiometry = C19ClF3HgO4 | MND = 2
Hg       13.61135888370485    1.12329915733894    4.46813151768077
Cl       12.42574707037431   -0.80664319455810    4.93483904353894
F        12.32904268165687    6.65220199325128    5.97457396509244
F        12.46425757548292    4.85974917160715    7.16452005709145
F        13.43417645188270    6.66796537679027    7.82421257260194
O        18.06413880766251    3.14567439130821    6.20865524489751
O        18.12828166578240    5.81662540781367    4.59306812797974
O        14.07087318276728    4.72292779297725    4.98446458143766
O        15.52837164812442    5.86984507103740    6.27801416016940
C        16.11254710143727    3.33412020224122    4.76121053226988
C        15.07483754277750    2.75273396172709    3.86910203604614
C        15.09970628068727    4.23372875190296    4.13561659753534
C        17.13761149160554    3.24215437551563    5.51512012826989
C        18.49754701384455    6.70721706315721    5.17763359767275
C        14.43106112652778    5.51701653405599    5.97940564942124
C        13.14502899549713    5.93581910080492    6.75488801127847
C        15.50792896008053    2.29854590077951    2.53116044243485
C        15.28317115942166    0.96665922138286    2.19184474550683
C        15.79892507786003    0.66142543940334    1.02145444706460
C        16.38042005864813    1.42590053225056    0.14916422829289
C        16.58638170903024    2.67138279433990    0.44461881390884
C        16.13793372928669    3.22438989620723    1.61994769579660
C        15.55477919381134    5.18194882045257    3.10860696360127
C        16.18086147699314    4.64263486123476    1.89663235491400
C        16.70472398615115    5.54051171029181    0.99971221868720
C        16.56810122646553    6.81038998662943    1.26474300296984
C        16.00487187442004    7.27353615449966    2.33236444263375
C        15.46891402800007    6.53643952555529    3.26889482120479

