45
CSD_code = FUVQEU | q = 0 | S = 0 | Stoichiometry = C12H28CrIN3 | MND = 4
Cr        0.35159951204693   10.97153169873359    9.19938946082887
N         1.24388127561507   10.14894699210570   10.26931614700644
N        -1.31308745837059   10.77038035944636    9.82573939433216
N         1.19578934361498   12.54678666307259    9.09906068951911
I         0.55007447327298    9.76991841502306    6.93899232559856
C        -1.75002571884899   10.00476807562454   10.97968463191863
H        -2.83900728868340   10.09665056480767   11.09630201363633
C         2.42271704525659   12.94885120741935    9.76378323985535
H         2.66666460538032   13.98697743844703    9.49779635105439
C        -2.35756708672416   11.43694535448670    9.08402943502973
H        -1.88178699224869   11.96507730573329    8.24125500077042
C         0.59667219148215   13.53812953558630    8.23678055346384
H        -0.31178848340194   13.09249482658883    7.79914777878176
C        -1.40716561460869    8.52392987923176   10.78284606362310
H        -1.89688007022767    8.13068109936330    9.89314101579585
H        -1.72894217586644    7.94631274975411   11.64548588381410
H        -0.32789360988542    8.42453096470744   10.66603388000173
C        -1.08446474594737   10.53396488004019   12.25263919298404
H        -0.00645938026601   10.41953044492266   12.15469533761881
H        -1.42827727771570    9.97167571242430   13.11659790462664
H        -1.31797895862504   11.58748766579673   12.39970806144746
C         2.25685939168380   12.86863700703352   11.28333407271770
H         1.43509542213764   13.50150294366926   11.61516830587419
H         3.17079324296724   13.18753635425188   11.77710797573429
H         2.04234935882000   11.83670831731833   11.55536350880673
C         3.57833203847894   12.04864750527677    9.31232879973360
H         3.34527682806469   11.01672850433566    9.57573553850872
H         4.50000329550478   12.34515017156387    9.80636171698887
H         3.71951905273807   12.11553443312054    8.23444737280152
C        -3.34863897248071   10.44354903608352    8.45610938382431
H        -2.81262858053689    9.70009576904069    7.86700004890685
H        -4.03339434368813   10.97657209232190    7.80025979569983
H        -3.93148109312888    9.93030922427177    9.21750744969056
C        -3.09736513169455   12.49923924436756    9.91262229593765
H        -3.71617903744307   12.04170163507345   10.68125440170330
H        -3.74008973603163   13.09139042923015    9.26484995196926
H        -2.38083665489505   13.16323881169836   10.39649440259058
C         1.50427771951222   13.90175934567099    7.05044976395913
H         2.39447974851557   14.43232347880377    7.38022586105680
H         0.96074824623171   14.54019314119230    6.35756343512603
H         1.81132161225856   12.99974297506295    6.52222188353998
C         0.15168400036064   14.79990613213696    8.99324679869660
H        -0.44453429339281   14.52441262206696    9.86339763574030
H        -0.45111144819954   15.42828564444548    8.34122427028733
H         1.00664574896906   15.38076334864808    9.33190096839819

