43
CSD_code = FUYYUV | q = 0 | S = 0 | Stoichiometry = C19H18CoF4P | MND = 8
Co        4.51574102766368    4.69830327606035   14.28792839750411
P         6.61483243960718    5.35737970563532   14.57271815679498
F         5.98703826702334    2.50968603849073   13.35830260922009
F         3.97399504459510    2.05739685022912   13.91990349528601
F         5.45928841332640    2.44715474894275   15.43090261742991
F         4.79179862679953    4.75375071369648   12.51440076109093
C         2.42352387282125    4.71903016696172   14.39552864778357
H         1.70429139598431    4.21764376938924   13.76789751927378
C         2.84092092682256    6.07259206333106   14.25966266463871
H         2.52852273179046    6.74714569325095   13.47938358707584
C         3.68204617740123    6.37718274300676   15.33059313704415
H         4.10062988779052    7.34643005011595   15.55318021965273
C         3.77884934807213    5.21504010417700   16.16182148570071
H         4.26149862911523    5.17052328503703   17.12548141869088
C         2.95037614262275    4.22159021207099   15.61214849762299
H         2.72933421182163    3.26314703801051   16.05325558163589
C         5.00790325635168    2.87384434771163   14.21017821816945
C         6.86359841773661    7.12320613917226   14.19134612007324
C         6.04746605101631    7.72210489928784   13.23882303612920
H         5.26226459488126    7.14252433342038   12.77583996772194
C         6.25350551871571    9.04235958150875   12.87986505674824
H         5.61803810090433    9.50407496588383   12.13894298389570
C         7.27484089851786    9.76975019150103   13.46851035547048
H         7.43225734797594   10.80228644310266   13.19427145524899
C         8.10107776095365    9.17002224894471   14.40548917927263
H         8.90473548544855    9.73287993935726   14.85733874614776
C         7.90324306519510    7.84875433060285   14.76387398238333
H         8.55334685750884    7.38230601020539   15.49115044598513
C         7.25298577519786    5.16825519963286   16.26356454342322
C         6.92367361176468    6.11726786282405   17.22930124720995
H         6.34507091588967    6.98642150646165   16.94712551259709
C         7.34335709615071    5.95840414221859   18.53610235137532
H         7.09161701018480    6.70362563848768   19.27654217821991
C         8.08047187703505    4.84114195360067   18.89638127286625
H         8.40390302727056    4.71514783737198   19.91877026217127
C         8.39162623374952    3.88355028282370   17.94579447457940
H         8.95496565348794    3.00654643842768   18.22727469317037
C         7.97682682755152    4.04086918099336   16.63505500992933
H         8.20731605437474    3.28101646548988   15.90450724977896
C         7.91504595491963    4.66358182638243   13.49377097015840
H         8.84161484554286    5.21690972186110   13.65348521882634
H         7.57066215460698    4.78703458734451   12.46671482955061
H         8.06619846380599    3.60401746697358   13.67867184244896

