45
CSD_code = GAJQAL | q = 0 | S = 0 | Stoichiometry = C16H20Cl2MoO4S2 | MND = 6
Mo        3.80808764221960    5.60315809977759   22.89856092796079
S         1.51950272170310    4.49454981969556   24.33408678271001
S         1.81218418935628    7.87699974698871   21.91494930309627
Cl        3.94803273789281    7.44658866757570   24.31733943753333
Cl        2.75827378802664    4.28907548518420   21.27717094640523
O         3.74546260037215    4.40226133430310   24.04364091223414
O         5.30283504588521    5.70962854012737   22.24980495637875
O         1.71589512904870    5.75456845606524   23.50170743941456
O         3.06704324364361    7.08202083287545   21.67407231924661
C         2.00844691463208    4.97668101824694   25.98791192230522
C         1.88444137697362    6.29230044258864   26.39456751288268
H         1.47945977266803    7.03097979914765   25.71779946694187
C         2.31392655301330    6.65485576805258   27.65899150977751
H         2.23303540134002    7.68551865225511   27.97040542268428
C         2.85955638425732    5.71322055063477   28.52253495491030
C         2.96959443927042    4.39283346739814   28.09486218235689
H         3.39985385803455    3.65438132360717   28.75542192890363
C         2.55119718584678    4.02185976653504   26.83110583774110
H         2.65789674428413    3.00545901231080   26.48435274782859
C         2.06515624934403    9.29682049398377   20.82567674400518
C         3.14439614888589    9.30341954677264   19.96188103595669
H         3.81853044805573    8.45847321665080   19.95376945143939
C         3.34717336136659   10.39283122648072   19.13332853443601
H         4.18949935879259   10.39808115342966   18.45750557371120
C         2.48207069225024   11.48047856219062   19.16480721207948
C         1.40731125204846   11.45914139987661   20.05087868432778
H         0.73365746859569   12.30272917580636   20.08797821699837
C         1.19829543321640   10.37659090786712   20.88445611766748
H         0.36976394478881   10.36579387030095   21.57670207879983
C         3.34850135562702    6.10637600071498   29.88209920587355
H         3.03214843706960    5.38197419407183   30.63036443683016
H         2.97870872265300    7.08966212841069   30.16101046158264
H         4.43793224607794    6.13691609628845   29.88704932394995
C         2.70520436063815   12.66908014520897   18.28364214354849
H         1.77303439350959   12.98366394060745   17.81883567376501
H         3.43144247918216   12.44874573201594   17.50621911608639
H         3.07959108660031   13.50407240798066   18.87551141901482
C        -0.29298559095073    4.67044038265103   24.66841613634871
H        -0.50963057733268    5.66708033470684   25.03235993855684
H        -0.57482786350108    3.92695340280640   25.40436703318952
H        -0.81787555759218    4.48636789437071   23.73757463145584
C         0.60578902379325    7.03694688210766   20.82727087295620
H         1.03476756177012    6.95296792187821   19.83418894593718
H        -0.31708936878030    7.60538938033749   20.81080055850396
H         0.44830920536201    6.04556281911363   21.24481994164359

