46
CSD_code = GAKKEL | q = 0 | S = 0 | Stoichiometry = C13H24Cl2N2NiO2S2 | MND = 5
Ni       10.31632995062297    8.93584123825279   11.37910166848388
S        10.90745854267718    7.46921312348716    9.14356154855202
Cl        9.15529049337676    7.55648602567045   12.43957768900221
Cl        8.73179314010742    9.88770983819408   10.58975559101610
N        12.13415098390799    8.17959470383053   11.92702163689031
N        11.18547597003007   10.42720564783438   12.97180005152206
C        11.73532487629915    9.53426886759124   14.00024117057559
H        10.93362525951471    9.28708408415065   14.69426533576873
H        12.51797254614280   10.04891758689773   14.57480701673481
O         9.96433811597450    5.09090315224537    9.67112942083974
C         9.63756382741121    6.18863975502776    9.33390010997214
C        12.26774066772613    8.21602040053456   13.38995192114188
H        13.31574051377051    8.04609460757198   13.67292600478440
H        11.67403022877524    7.38914936115377   13.78395160193926
C        12.28326990032606    6.78729497735673   11.47058013141673
H        11.44344040095038    6.21456397100573   11.87673599711431
H        13.22128740803971    6.36349447182931   11.86547616453251
C        12.26525009992704   11.18657460378807   12.32599333891653
H        12.59707853145058   12.00844003113451   12.98216483544622
H        11.86211924897747   11.62526781874290   11.40806522764261
C        13.14645956973658    9.02950690912139   11.26712788966026
H        12.78556209850954    9.27806934719939   10.26228451771956
H        14.08184776259196    8.45860064630046   11.16311690166721
C        10.24043892381317   11.38207727358782   13.56283558181431
H        10.04497570944065   12.16127981322637   12.82095215920292
H        10.69105480941783   11.85026578311518   14.45195549669595
C        12.29667528341869    6.61558033047079    9.95543537251107
H        12.17821711184315    5.55758518511999    9.71470811396132
H        13.20568999981993    6.99614917133571    9.49258220993302
C         8.28357029213478    6.69934824481375    9.01909322290303
H         8.31656184450068    7.41876582989361    8.20496172396440
H         7.92035916257978    7.22248632964356    9.90762182355507
H         7.60959040070097    5.87680563006832    8.79500303350989
S         7.82406402762259   12.00206168534261   14.68574511837731
C         8.51083707425959   12.05564609049338   16.32240719384997
C        13.48086064400661   10.32383766325940   12.00204735004600
H        14.14987806285845   10.90424560027959   11.36272069765703
H        14.03256429225678   10.09937075703356   12.91554969332068
C         8.90713556129888   10.75146422362615   13.94064612589763
H         9.00878105843172    9.95768632871197   14.67911974786281
H         8.38610838491753   10.37535716656324   13.06046491495707
O         9.44733273640136   11.36666991639664   16.62623995104022
C         7.80732478268454   13.03571962335177   17.20822422203535
H         8.14060246176242   12.91242793002123   18.23571829831417
H         6.73189352885269   12.89544549121253   17.13890325057665
H         8.03603371012931   14.04548276350622   16.87182892667673

