55
CSD_code = GATMIY | q = 0 | S = 0 | Stoichiometry = C22H29IN2Pt | MND = 6
Pt       -5.12328716630157    4.20485380560263   -1.19915526396017
I        -3.42040521103713    6.23837236935932   -0.52368704182834
N        -3.21050358575952    2.84183219523051   -1.88875172752764
N        -4.51282071765263    3.22763915212535    0.71165388071887
C        -5.53366962591495    5.05903434214021   -3.01978224289591
H        -5.66968146928208    6.13742306497181   -2.91422664499453
H        -6.41201841504852    4.65189968263222   -3.52192005166206
H        -4.65784472143223    4.88809185266733   -3.65393237157358
C        -6.76159638284210    5.18843836473694   -0.42736760604636
H        -6.42857355723329    6.11958770695135    0.03226283407638
H        -7.21959162989702    4.54972421603426    0.33230496733610
H        -7.50926043067494    5.42556551118882   -1.18326000582365
C        -6.44025875048645    2.68289469710949   -1.66307790752224
H        -6.34724213979202    1.89431193083430   -0.91280387093854
H        -6.21197187725775    2.26016309665730   -2.64085220719978
H        -7.48317218660783    2.99530596763312   -1.68101030116604
C        -3.54686582667361    1.57839679750231   -2.54024505585968
H        -4.01891474577883    1.77749318750738   -3.50112074278311
H        -4.23423380213732    0.99346462682561   -1.93430433885646
H        -2.64228155687089    0.97820623444286   -2.71549974482051
C        -2.24960789756151    3.53266955049867   -2.75030060311280
H        -1.98308644945962    4.50052979912757   -2.33219805588022
H        -2.68679841004817    3.68907192986824   -3.73537251626568
H        -1.33278881124738    2.93978268976455   -2.86985981183566
C        -2.57238517281451    2.57884144149664   -0.59428917452476
H        -2.06962097868387    3.49191810343158   -0.26343400948827
H        -1.80751909337146    1.79165371750978   -0.69429110720088
C        -3.56300787131331    2.16454834124358    0.49854911710520
H        -4.10978829667719    1.26551775390094    0.19469881085881
H        -2.99782554601959    1.93191356521058    1.41083172955627
C        -4.74512364491852    3.68101660478187    1.87251984910638
H        -5.40962508683229    4.53905129273917    1.93723179353584
C        -4.24542735034826    3.17618363539873    3.15706155362187
C        -3.56096567310685    4.07305768174853    4.04467502492628
C        -3.23492695790763    5.37527336904402    3.63199222846271
H        -3.49122886032112    5.70142392004526    2.63603091945359
C        -2.57383193304760    6.23396836230558    4.47251901568241
H        -2.32871772244354    7.23091726620945    4.14087730964190
C        -2.21367422429645    5.80891667988458    5.75053465980317
H        -1.69379388926346    6.48424070990629    6.41392305807836
C        -2.50600846185892    4.53322699034297    6.16658805512909
H        -2.20097550400132    4.22990253944829    7.15534721154045
C        -3.17864243551150    3.62600471431688    5.33216801380097
C        -3.47623900088750    2.27152202616009    5.73391636727409
C        -3.14568281312177    1.75278173751021    6.99581560541484
H        -2.65260832763688    2.37654724537984    7.72397547117766
C        -3.43850159594732    0.45444762584922    7.33481947272981
H        -3.17299735625723    0.08186327659798    8.31316730146288
C        -4.07796644449173   -0.38960055082123    6.42598879280557
H        -4.30339869721846   -1.40864081696200    6.70282415615593
C        -4.41824014346665    0.08617503410359    5.18673092159541
H        -4.91731948867119   -0.55294099768053    4.47187067165974
C        -4.12847479013141    1.41071558316790    4.81978934114484
C        -4.49664907280927    1.89330139535887    3.53585759143463
H        -5.02925819945363    1.22219898101935    2.87471667836779

