53
CSD_code = GAVMAU | q = 0 | S = 0 | Stoichiometry = C16H28Cl2N4O2Pd | MND = 4
Pd        2.05856438551142    3.88057319921681    6.74151389783458
Cl        1.25196373660591    2.54517826781898    8.45067670312945
Cl        3.50761516938475    4.89466028498076    5.26327689055748
O         4.74247976998469   -0.41970535287212    4.98179209433696
O         5.01297776114404    5.15400431191759   11.06321820862501
N         1.79227260477039    2.42749003927280    5.43018357566107
N         3.83637180290063    1.48222717538855    5.82845127357804
N         2.21435092346243    5.37171877326291    8.03366489018887
N         3.91452546963680    4.40331699623096    9.22181547609792
C         0.59652500700242    2.32500082639483    4.60452386464756
C         0.90348638748449    1.17328804111659    3.61178760073250
H         0.08491044746935    0.45776576086679    3.57942516206238
H         1.04542106746422    1.57371238022326    2.60870455128722
C         2.20292600864379    0.53446391916115    4.12473772368218
H         2.96612175146712    0.41756308076975    3.35660401016484
H         2.04823496603243   -0.44637647537453    4.57732055226158
C         2.63910755011330    1.50828896340277    5.17153279607292
C         4.84178064068056    0.54948969293006    5.69021818709853
C         6.04474314600716    0.88269338555379    6.53645423324459
H         6.38552372064188    1.89391473335839    6.32333923615338
H         6.84265616767437    0.17782982599989    6.32322421449966
H         5.77966131078810    0.80995850371912    7.58990294806395
C        -0.59636240524977    2.01343688827377    5.51194233972876
H        -1.51479118727110    1.98203503651861    4.93124844745580
H        -0.68575545081342    2.78441064032066    6.28098524223296
H        -0.45394955728556    1.05657277893600    6.00950207097293
C         0.39225130806347    3.67524479522652    3.91205873128513
H        -0.51098724212470    3.66189795124931    3.30736401690726
H         1.24688661588329    3.90824580179234    3.27922681636081
H         0.30544269965386    4.46390249609326    4.67190853894597
C         1.29689471387259    6.50629414038108    8.02862873423979
C         1.48623186477586    7.15518699539400    9.42243924064221
H         1.50299149856163    8.24043822525494    9.35645992824238
H         0.66818906288279    6.86302140373031   10.08092431647684
C         2.81186578189460    6.58014513115617    9.94036100311436
H         2.78260030894407    6.27843381800441   10.98590025297883
H         3.64902649781216    7.27113970356778    9.82425375337507
C         3.00376094078080    5.40302930621196    9.03733698692309
C         4.83573783558019    4.29122629565310   10.24145804285706
C         5.58864528926361    2.98596284096182   10.18074266934847
H         6.18681832181481    2.95021662827228    9.27199159165708
H         4.88809927983463    2.15320022916217   10.18049500770199
H         6.24588759250782    2.90703954229973   11.04134908521297
C        -0.11608124100638    5.96550223285631    7.79649537777693
H        -0.83941304516107    6.77702629061659    7.78868691919375
H        -0.38078528868394    5.25631889698900    8.58064697299809
H        -0.15057882541385    5.44687715707364    6.82571722036812
C         1.69608316227776    7.45597105848275    6.89584800108526
H         0.98189973181610    8.27179168076846    6.81981591450049
H         1.72238386600072    6.91517833696210    5.94967334627254
H         2.68735391953184    7.86527095446428    7.07686838890572
H         3.78164265123992    3.61486083416593    8.57450514060704
H         3.98649150519077    2.31056557579584    6.42089781152182

