35
CSD_code = GEFWAS | q = 0 | S = 0 | Stoichiometry = C12H15ClN2O3PdS | MND = 4
Pd       -1.90356232111586   -2.88936107648490   -4.96607450406597
Cl       -2.99817116117363   -4.78526028794642   -5.54274184413371
S        -0.88286549851214   -3.10904732001168   -7.01225443561207
N        -0.99322168369141   -1.17485605001329   -4.42073656801078
N        -2.97034266353105   -2.51355624622773   -3.33705541437567
O        -0.72364970084384    0.09302705545805   -2.53168805623841
O         0.69723442275097   -3.21096897217928   -4.19721443915525
O         2.48711768898957   -1.90785106632089   -4.51252474101620
C        -2.57020426376026   -1.41156868904297   -2.68725137161126
C        -3.20894999801680   -0.96575983692700   -1.53853117361920
H        -2.82436113135520   -0.08234709578692   -1.05312731238920
C        -4.29894772620576   -1.67053373229854   -1.05860831930886
H        -4.81787597187612   -1.34547378496479   -0.16951951831970
C        -4.70522799217117   -2.80757056867161   -1.74191987984580
H        -5.54529974125878   -3.39174598969760   -1.40139295475041
C        -4.01359697071373   -3.19868941252976   -2.87731026571633
H        -4.29561914848967   -4.08442736907138   -3.43664304866155
C        -1.32482763272157   -0.74151131084194   -3.20223634520624
C         0.35088638243174   -0.91132340908865   -4.86291140801891
H         0.75054710615309   -0.04682606861342   -4.31314102727986
C         1.18272902513346   -2.14025055407792   -4.48511362129695
C         3.33137338957562   -2.99715829255341   -4.14747152346573
H         4.34783640178632   -2.67734471003813   -4.35967276045146
H         3.07380851737645   -3.88654067115616   -4.72541115642221
H         3.21404716350140   -3.22101160171812   -3.08648624273143
C         0.41313779344361   -0.63860914140852   -6.37738714284114
H        -0.46352207908202   -0.04091930521382   -6.64041150698450
H         1.30509479960487   -0.04733475696548   -6.59473095452614
C         0.47104245986324   -1.89598320857650   -7.23750353010332
H         1.37954444792174   -2.46209839675727   -7.02923031720763
H         0.46795210191160   -1.63170629050640   -8.29604465697890
C        -2.24542587785321   -2.22932007468006   -7.84922150613556
H        -1.96907719295863   -2.04374555932511   -8.88451023660139
H        -2.47364930901534   -1.29579829788791   -7.33005864233371
H        -3.10245363609426   -2.90192790787536   -7.80576357458369

