43
CSD_code = GEKDIL | q = 0 | S = 0 | Stoichiometry = C12H21Cl2N3O3SiZn | MND = 4
Zn        4.40078254586023    1.70645575827139    4.06747565244492
Si        5.96210604932580    3.73262430563250    2.06988972063387
Cl        4.32270115405447    1.82551152112071    6.22230224125248
Cl        2.58610079245454    1.68204193205309    2.77060618471616
O         6.93957546360357    5.03132244336985    1.84885496511158
O         4.97948342567614    3.74177119716817    3.41569593116308
O         5.52228199371048    2.83271061642721    0.77464304837868
N         4.39909424893248    5.11595475344365    1.27416175669654
N         6.88959688942001    1.15283457801675    2.52048922447403
N         5.82514068433944    0.61091111785045    3.11877641575099
C         7.26623076887907    2.50526204284994    2.79504078844797
C         7.41000795187743    0.30910733599214    1.61998799555810
C         6.56941418126200    6.12411741650825    1.06319594406375
C         4.00886138563923    4.75131664089481    3.60160714275639
C         5.66054246188327   -0.61503868773094    2.61867733554345
C         6.64979588361082   -0.84995532713997    1.66708203776640
C         4.55413720507502   -1.49553349142428    3.06732519593876
C         3.33515638417001    5.01466213805521    2.25726580274887
C         8.57779702422801    0.64704959483354    0.76970279940418
C         4.33841117118095    3.04987422168424    0.04745072517156
C         5.07032513277676    6.39920337429478    1.24025763813353
C         4.08138389454249    4.55972920259076   -0.02816132789535
H         7.16564606547526    6.98611222875147    1.37051910640808
H         6.79492304944158    5.89265718703383    0.01545589529866
H         3.28388655563893    4.40895801775460    4.34138959608382
H         4.51328868716957    5.64622923610596    3.98361840792862
H         6.79239179089035   -1.73868999093242    1.08776923206600
H         2.70729079303516    5.91096059088080    2.29291009284513
H         2.71987824572858    4.14470733913665    2.01925918826207
H         4.47192983145618    2.62286548288847   -0.94848537922665
H         3.51803640928711    2.53545855620205    0.55967091179974
H         4.69745283492570    7.04984773377691    0.44246607897835
H         4.92088269758326    6.89715388773200    2.19883379846109
H         3.04932516153806    4.76434587215438   -0.32789115227888
H         4.76174654973056    4.99612343312398   -0.76225711507324
H         3.64062404988831   -1.24410957151060    2.52776581902329
H         4.79509908965458   -2.53804004628912    2.87749135108295
H         4.36729028875629   -1.35206339244605    4.13123275828018
H         9.45766184969351    0.85253616172009    1.37862478709554
H         8.79911461496398   -0.18548696587030    0.10837370768698
H         8.35870906893809    1.53023152090259    0.17190255043449
H         8.26071509506531    2.67730212775554    2.39642273587009
H         7.31638057862647    2.62906790636596    3.87720041071806

