44
CSD_code = GENGOX | q = 0 | S = 0 | Stoichiometry = C14H20CuIN4O2S2 | MND = 3
C         1.21810297213898    4.87011877733737    6.85039716768768
C         1.51290612541966    2.43016869673249    6.77891411683076
C         2.56110724684724    2.61230187001006    7.75896006088490
H         3.07258030748069    1.72957723828950    8.10074875593332
C         2.88266767119245    3.83961079863796    8.22462073589676
C         3.97851542432785    4.11996321312528    9.19538963517116
H         4.22773213627806    3.21104518953000    9.74158267535961
H         3.65475794496542    4.87951353787028    9.90985046811213
C         5.23007767214427    4.63732287538252    8.46822582655415
H         5.60362047486934    3.85929308284913    7.79996477999088
H         4.96944619942618    5.50628941761907    7.86226347423348
C         6.30801855096748    5.03597102327110    9.46552874623710
H         7.19828620827623    5.37195257831881    8.94136038631678
H         6.57724456304932    4.19426713239392   10.09877514345174
H         5.95339104896611    5.84838658167823   10.09470743012568
C         0.51449697663141   11.28965466425492    7.53186061191253
C         0.24592433942761   13.68835152082939    8.00133786554354
C         1.27617218448798   13.52170209438412    9.00296447092162
H         1.56072257175363   14.39436394971403    9.56438747823319
C         1.85618067432189   12.32078882230805    9.22225348155477
C         2.95671523652574   12.07486773001288   10.19707483868522
H         2.80135315654793   11.11678366563081   10.69712076138926
H         2.96528758302212   12.86334081169308   10.94868256983623
C         4.31764823647558   12.03651364146554    9.48339008927498
H         4.29172703269391   11.29501415495893    8.68361894795201
H         4.51431863817970   13.01175377373340    9.03429421548510
C         5.42804512226101   11.67275220263627   10.45815225152218
H         6.38861394666879   11.67642263236436    9.95079833801789
H         5.25860730786891   10.67847804037647   10.86354565203211
H         5.46842914904552   12.38400385313069   11.27941472607285
Cu        1.20125458580822    8.09657099476412    7.37897662588201
I         3.01135062240939    8.10904572959610    9.12152584710479
N         0.90487287868189    3.63930224675804    6.39052242550106
H         0.16134401113894    3.57226598018314    5.70378059900514
N         2.20843556034775    4.93961799155333    7.76290115331460
H         2.45945363591560    5.86050233981112    8.13620941887531
N        -0.05756818877672   12.49464025402740    7.31891141263045
H        -0.77536884696261   12.55151522231288    6.60442318209982
N         1.46630108651272   11.23316896140107    8.48549330680673
H         1.91700190600950   10.33079333991421    8.66716692380305
O         1.13843029857872    1.39223044479500    6.29215057956732
O        -0.34111155294294   14.70270269088606    7.71689387058675
S         0.39066807463822    6.20364836968675    6.28372741307381
S         0.03053922637232    9.97042186376076    6.63213154051672

