49
CSD_code = GENZII | q = 0 | S = 0 | Stoichiometry = C22H18Cl2CrN6 | MND = 6
Cr        0.48467938743995    4.28672981777449    4.52531140785644
Cl       -0.80248416062117    5.91311212077841    5.26635836708672
Cl        2.20453912382168    5.28518019997026    3.57887124411283
N         1.47311523266522    4.36137289688318    6.27218809237550
C         1.53944733805565    5.35461386003112    7.17251334086287
C         2.36118446307582    5.33028123711645    8.26901781310947
C         3.18798580075983    4.21693727087762    8.49353347111808
C         3.15501477744166    3.19256640269622    7.59310029831648
C         2.29775295837952    3.29374214444382    6.47620070956431
N         2.24584074047394    2.33197037993436    5.56368594892676
N         1.47222127926533    2.63205779005116    4.56892495370940
C         1.28757908951766    1.59677557408942    3.65594212122979
C         1.17645696356463    1.87536404383846    2.29363986562797
C         0.94164563799629    0.85064655088814    1.39757407398788
C         0.82254143776299   -0.45658653161411    1.84281122857165
C         0.97303776789145   -0.74214582160572    3.19072485560790
C         1.21243366133241    0.27241847547046    4.09576927977592
N        -0.47026411279570    4.40713760825717    2.76268919756668
C        -0.23805346148362    5.22117463097601    1.72103080404317
C        -1.05123257714959    5.29481066406659    0.62037028786447
C        -2.19563827882806    4.48342717933680    0.54602482396718
C        -2.46941201277143    3.65091231202602    1.59157615227138
C        -1.59743234017081    3.64066973676790    2.70155856352049
N        -1.83284255334110    2.86225989251779    3.75001745432063
N        -0.97989616283775    3.04701068832962    4.70722280286018
C        -1.11300982974617    2.15908275579954    5.77176609593667
C        -1.47404856868615    0.82886771852818    5.54139686586775
C        -1.54850195997796   -0.05791179881668    6.59685045447136
C        -1.28285241376186    0.36777608858081    7.88884993084418
C        -0.96892063734873    1.69692581185630    8.12597660361154
C        -0.88645019634316    2.59304018880269    7.07801758788372
H         1.32049945144824    2.88803325701568    1.94409350633804
H         0.85784101326447    1.07328580030589    0.34430814532455
H         0.62803413309366   -1.25157173676270    1.13888488453597
H         0.90118401664786   -1.76165286212707    3.53899110416369
H         1.33302066529024    0.06993239253844    5.14896052569661
H        -1.67804257755942    0.51637268676062    4.52871797946547
H        -1.81340892868847   -1.08794581720873    6.41041687686066
H        -1.33501003664799   -0.33000434318562    8.71089484125426
H        -0.79349702036613    2.03994724440041    9.13471267964443
H        -0.69204612158841    3.63985858775199    7.26473695164710
H         0.88584651129901    6.19734462678078    6.98986788239824
H         2.36519365369070    6.16445444489638    8.95140982910009
H         3.83414318553188    4.18288796585161    9.35690330208689
H         3.76407648462686    2.30878711390363    7.68098966635066
H         0.65477709632528    5.82842206423287    1.79060652841206
H        -0.80522668981414    5.97294867892291   -0.18033689601639
H        -2.84003625229571    4.52744330067931   -0.31818681738457
H        -3.33088497780613    3.00543670661540    1.62291431323050

