66
CSD_code = GETNEA | q = 0 | S = 0 | Stoichiometry = C25H30BBrN2O6Pt | MND = 6
Pt        7.32046619691460    1.37213011127327    4.10451940575683
Br        9.57101670878332    0.36461416614380    3.24381374613397
O         6.34971875484904   -4.47971818403950    8.10662149325803
O         7.29075099904405   -3.10563647432253    9.60975040714507
O        12.22120115744009    3.40320577820743    8.78282583257750
O        11.77542296538974    1.36771573582201    9.61283630557194
O         6.46686992184433    3.57359612667337    7.51402179444811
H         7.02472879892880    4.11834420311488    8.07182159760077
O         7.08958565041304    1.98829166349053    9.06723312207915
H         6.99212235200931    1.10556580821295    9.42163971684158
N         7.29065926307110   -0.45666679353297    5.38288958337127
N         8.52743922121897    1.92354098030082    5.84867975582769
C         7.95377223344317   -0.30145564007827    6.53654379871593
C         7.85969353185596   -1.24994713033701    7.55135795351527
H         8.34027572961597   -1.11207477329812    8.50643216509908
C         7.09711870463212   -2.39147267539253    7.35041574655957
C         6.93682992024065   -3.34804120898845    8.48199584505934
C         6.14789119520139   -5.46317669259022    9.12558623816296
H         5.42817448915812   -5.07082808506278    9.85285306786431
H         7.09765912705782   -5.63142871781633    9.64492354796823
C         5.63821300531016   -6.73188489251052    8.47001747232442
H         4.70072425016564   -6.53847019752764    7.95564402241398
H         5.47703392913457   -7.49315304495998    9.22736014206119
H         6.36279839008993   -7.09758160395781    7.74747081952528
C         6.49097414598248   -2.57963002189522    6.11185323647278
H         5.91941660628595   -3.46849649541061    5.90505525364943
C         6.61269959105758   -1.57463825699479    5.17162264486982
H         6.14168344124048   -1.67378280831088    4.20397798167879
C         8.76650033250019    0.91202057790343    6.69287279757334
C         9.22062393586993    3.04742235890678    5.96571396252787
H         8.97246377545155    3.83557282754470    5.26844679134578
C        10.20908612817920    3.23139283371429    6.91366641958010
H        10.75103229224207    4.16016519836700    6.97873858102670
C        10.49599637861110    2.17612486486989    7.77604831988628
C         9.76328302599351    1.00360732476486    7.66092851203174
H        10.00126069636757    0.18277181133098    8.31768934566807
C        11.55458794951277    2.25187332056546    8.82325174666058
C        13.27145544067970    3.56213650032993    9.74038002452285
H        13.92409971897840    2.68344438568615    9.69482505754521
H        12.82837954378714    3.60443680167802   10.74179106873670
C        14.02801738782290    4.83516444715082    9.41434416096627
H        14.44893965887313    4.77518181299995    8.41428698378078
H        14.83284761794757    4.97268370816722   10.13018392150117
H        13.36112035525304    5.69190885664313    9.46113058422739
C         5.57244779987826    2.21603198781186    4.94357136602216
H         5.89036954607860    3.13000506337543    5.44044484995129
H         4.85206635768854    2.44773494412248    4.15942664138511
C         5.01348132642729    1.25852727732632    5.90820017655680
C         4.09292644588234    0.30555037880656    5.45460544317314
H         3.78737796750647    0.33699623106407    4.41851056393353
C         3.56951366274688   -0.65791672336260    6.28993687437327
H         2.86073320161119   -1.38002132808656    5.91061680434561
C         3.95369439328082   -0.69093148392276    7.62094608981169
H         3.55614244350524   -1.44012572853228    8.28979423926258
C         4.84112711100923    0.25789244068593    8.09089705343146
H         5.10540701443915    0.23747708706179    9.14129331647005
C         5.38356371799127    1.25143100744965    7.27209914128516
C         6.24841430946679    0.67195890622818    2.48986353560633
H         5.56553937601911    1.39478120350097    2.04225666699190
H         5.65598121917123   -0.18929002749396    2.80925144407937
H         6.94699748924657    0.34277737467933    1.71754024949479
C         7.59783948343528    3.11790088547269    3.03966496246522
H         7.17309143600795    3.09872478001198    2.03653403517995
H         8.67870286144599    3.24357297103497    2.93688588887646
H         7.18376772980349    3.97909408582594    3.56700869839848
B         6.34978058893182    2.30130016002826    7.96209098483556

