54
CSD_code = GEVLIC | q = 0 | S = 0 | Stoichiometry = C14H33ClO2P3Rh | MND = 6
Rh       -1.67613805926538    3.92622581853936    8.85909460938174
Cl       -2.86957977083582    3.03364595879951    6.95655581107877
P        -2.82538584780701    5.88662127624140    8.39653436983179
P        -3.28306254846176    3.06570298157771   10.25637117280389
P        -0.44611644798627    1.98868456604416    8.69076250334648
O        -0.35258354576963    4.63729030563639    7.44877914019458
O         1.46774094431320    5.43121874253014    6.53150943272745
C        -0.54289169251959    4.77569837947624   10.34775232805926
C         0.40282966035370    5.86159196529382    9.90495145137046
C         1.44205690568824    5.33435720998846    8.91655141961614
C         0.82642830092544    5.12275591042121    7.52274212957864
C        -0.54063847918048    4.42004666141311   11.62289582898485
C        -2.97520825450289    7.28420718669824    9.58846306874743
C        -4.58168894750964    5.72023135085586    7.89064874499936
C        -2.17920357084197    6.74158460432801    6.92116204656101
C        -4.74163627689278    2.34684178550768    9.41805847393425
C        -2.96181397434592    1.68710725123214   11.44007927682260
C        -4.09724355090298    4.23322515823111   11.41813848800405
C         0.75077725400728    1.96687384721563    7.31377089506243
C        -1.36086414621273    0.45457819127074    8.27219768940125
C         0.59875087766002    1.42750426555395   10.09476756505087
H         0.91565937489807    6.27459980543505   10.78106502374116
H        -0.14131951592397    6.67940289778730    9.42014473940289
H         1.84744679379980    4.38197482589590    9.27250013970400
H         2.26955817185473    6.03756631731319    8.80743473229628
H         0.10011560652996    4.91033488600432   12.34720119761339
H        -1.15743903286691    3.63381663507750   12.02287820638677
H        -3.57777970386208    8.07207357565818    9.13849704050931
H        -1.99420024292625    7.68293992520735    9.83142323857319
H        -3.44526330312537    6.95118422549497   10.51001311511273
H        -4.93169595047967    6.67565457543806    7.50073700284872
H        -5.20768183526222    5.42578607025021    8.73019758003895
H        -4.64165934172732    4.96181713158597    7.11153251001631
H        -2.82618303677323    7.58383880533714    6.67385487161401
H        -2.15889743585780    6.02556146790370    6.10023520986725
H        -1.16180556226737    7.08953294551980    7.08787995662935
H        -5.50330342142886    2.08536438489751   10.15270639582657
H        -4.42768720857107    1.46297381811625    8.86640226965622
H        -5.13788533686127    3.05238415697783    8.69392457771181
H        -3.91587719382505    1.35581406731335   11.84977217002280
H        -2.32366628439940    2.01141360383195   12.25749936497145
H        -2.48362805806111    0.85150739336872   10.93621757965919
H        -4.76307609818334    3.68762195439060   12.08578233094491
H        -4.67344911337591    4.96517891931378   10.85718830771245
H        -3.33837245710724    4.75139126409561   12.00038631799354
H         1.14566525251916    0.95670921011974    7.19882623702414
H         1.56704472223614    2.66420841393163    7.48885245100612
H         0.23272575225160    2.27115457693145    6.40464172817110
H        -0.66087125955929   -0.37907078243189    8.22179421105528
H        -1.83248559396860    0.60579678279656    7.30241768026547
H        -2.13808064963450    0.23406341563821    8.99885843747179
H         1.16857644538448    0.54697188510209    9.80170993835374
H        -0.02118462542434    1.19134955082453   10.95584692879714
H         1.28197131209073    2.22588987802030   10.37529206344404

