67
CSD_code = GIBZOJ | q = 0 | S = 0 | Stoichiometry = C14H38B10Br2NiP2 | MND = 4
Ni        4.86042057812106    0.49787037407087    3.29862299076417
Br        5.20234556806941   -1.38834665589150    2.06730390249932
Br        2.78776609081719   -0.09599974765861    4.03483208399225
P         6.98226830418753    0.91014782847611    3.16193318757282
P         4.44398959745104    2.52942946742452    3.92342373472491
B         6.77646998793574    3.91259758945880    2.54960617367784
H         6.24677501624584    3.56816734266594    1.56383463397396
B         6.16742051199421    5.19814173535400    3.59567356298683
H         5.18920143482782    5.77288610275530    3.28517692306196
B         6.41945937511765    4.69982880213763    5.26013593211771
H         5.63467011484404    4.94503078401862    6.09059167227831
B         7.15085016274668    3.11038622241479    5.25269346475175
H         6.84727836259397    2.26136408791826    5.99967424734542
B         8.49545705821637    3.73782963745686    2.82517691107594
H         9.15551337515794    3.31379550812557    1.95903537560518
B         7.75427825243025    5.35044956323726    2.81492257600297
H         7.94739046467973    6.10919955668879    1.93888429988280
B         7.54660231138220    5.83915278283865    4.51557641903818
H         7.57873995569900    6.96430737944063    4.85160965732276
B         8.15990720591700    4.51867706287355    5.55681614420383
H         8.62337624477041    4.70048590630421    6.62104313575563
B         8.73773017186278    3.22556197276981    4.48686922407330
H         9.56039723939997    2.42793307849436    4.75269482170297
B         8.99284345675922    4.92564588343786    4.03537281283048
H        10.07118869585090    5.39124229888451    4.01762779614150
C         7.36031751833370    2.69584390014078    3.61185076029194
C         6.02165130185482    3.54578249922000    4.03406757574063
C         7.66193509780820   -0.13268509942901    4.58592915835115
H         8.39072514081958    0.47698022806147    5.13207387928329
C         6.50612565194288   -0.50007533538999    5.52530330846444
H         5.76794244711392   -1.12058353583156    5.00294164651937
H         6.00435940359508    0.37506913360299    5.93812983292790
H         6.87719648400272   -1.08643215702121    6.36456954300743
C         8.32608546096353   -1.43559521069942    4.14132187170882
H         8.59089355028582   -2.00988938626191    5.02826464690480
H         9.23484097036802   -1.27128660139995    3.57283603119536
H         7.64048748412905   -2.04153887880399    3.55182694568436
C         8.07400978009527    0.41807177021371    1.72533764133491
H         7.88453976724661   -0.66075673698634    1.67636871975149
C         9.58110048504119    0.64007921363731    1.90163847600769
H        10.12407640421294   -0.24054636043930    1.56373993009391
H         9.86017120339876    0.83887288554994    2.93332408208061
H         9.92191131196980    1.47717480207909    1.29987725101237
C         7.57052778344993    0.99526995831386    0.40409031011676
H         7.68849228986722    2.07557818033269    0.35767059754962
H         6.52321755948697    0.73745305422468    0.25132289247040
H         8.13515323800613    0.55738109680719   -0.41663818298087
C         3.33580665985922    2.99938012355493    5.35481463926750
H         2.40922807805119    2.47972787939253    5.08357881156927
C         3.80305554916078    2.37179812675884    6.66635043055360
H         4.73944732203129    2.80138682813990    7.01529280527955
H         3.91793854872695    1.29453991144684    6.55240533385699
H         3.04803050955063    2.53801005939586    7.43215680571008
C         3.02606625744901    4.49207930122587    5.52087367755832
H         1.96291568415966    4.62776293514258    5.71007564437750
H         3.29519493327287    5.07838682710728    4.64589085586791
H         3.55839841472074    4.90538544769967    6.37221459998970
C         3.50527607199884    3.20013997556987    2.42463192381207
H         3.89832005559293    4.19817062249212    2.19975508906548
C         3.76011744959454    2.27559547921535    1.22731849839354
H         3.36699418232953    1.27116662712000    1.42598855110962
H         4.81701287105176    2.19812898894340    0.97244922135550
H         3.24139070282304    2.65127904965518    0.34660753944460
C         1.99254661268958    3.28697983962452    2.62582293687417
H         1.53394137778605    3.58316652004509    1.68319278614347
H         1.70949815515619    4.01974977146511    3.37345972302199
H         1.57932069291877    2.31821370238217    2.90054152585829

