42
CSD_code = GICWEX | q = 1 | S = 0 | Stoichiometry = C20H16ClN2O2Ru(1+) | MND = 9
C         8.58033338586031    8.74717939004873   18.06502806928134
C         9.10835359707130    9.80490116113261   17.32103050575489
H         9.11749970422411    9.75029249092299   16.23945329123866
C         9.66166844398388   10.93811545285038   17.97002467772726
H        10.10237745468757   11.73162023576762   17.37616191934853
C         9.80750225073317   10.94579711330267   19.36898609456685
H        10.35965682303071   11.74059020371160   19.85716738952908
C         9.34220010783307    9.83941916035164   20.12080198917437
H         9.54481410787211    9.78887834822434   21.18437193297641
C         8.67292190166819    8.79060367061635   19.48815111694211
H         8.32336580006047    7.94174678547526   20.06666438349855
C         7.85777678802382    7.63335692522894   17.37408791031105
H         7.57288584957669    6.83277705464542   18.05602780764815
H         8.46431089300008    7.20770003586967   16.56949965807467
C         6.59266251978426    8.19614446912813   16.72180646240781
C         7.00407292310792   11.78576491668086   21.68432317714677
H         7.58881216137745   10.93775380260343   22.01402766847272
C         6.37153261662706   12.60627805884111   22.61973015838341
H         6.49585222675428   12.39275255741997   23.66906509004660
C         5.59155736341452   13.66275521816082   22.20275658238380
H         5.09160126986367   14.30169252727365   22.91365327156833
C         5.43890273242324   13.88370872988489   20.82480272907661
C         6.11879086068693   13.00459110147241   19.95909379670355
C         4.64155005667834   14.91212063182373   20.24041420701538
H         4.12272675639605   15.58799807498946   20.90257738421053
C         4.52787548097289   15.04264980013411   18.89371956700227
H         3.91903014999011   15.82589943258892   18.46898950986967
C         5.19563526117220   14.15497496617470   17.99822076853671
C         5.98937464587042   13.13177739739609   18.55220188179234
C         5.11988751477917   14.21129287531569   16.59733569162105
H         4.52069684357396   14.96858278116093   16.11645989511802
C         5.81682716899977   13.27803619231808   15.86176434092612
H         5.78087411930812   13.28773094581076   14.78435046144807
C         6.57206046821826   12.29251376163475   16.50121050641244
H         7.08506576906642   11.53736588499016   15.92418056032771
Cl        5.47047899544095    9.84600073567537   19.21479800234860
N         6.90320023711354   11.98621252695562   20.38155327335549
N         6.66082025605355   12.21305913206043   17.81779870085567
O         5.69660272307143    7.25858039180432   16.50727918399454
H         4.87958988415317    7.61434439298608   16.11979466510979
O         6.46468017304360    9.35519631807462   16.42039552240491
Ru        7.57607171443292   10.80394434849505   18.91294019539013

