23
CSD_code = GIGJIQ | q = 0 | S = 0 | Stoichiometry = C7H10Cl3FSiTi | MND = 8
Ti        1.77479587977705    7.80811289417591    2.27146884694180
Cl        0.80894186362806    9.09094982258896    3.69417277336922
Cl        0.49409932923096    8.34563979134590    0.60923846831659
Si        3.88015368717976    7.55808554316192    4.94452836143148
Cl        0.87073072386529    5.90430229974779    2.63507954014931
F         2.38954357923208    6.85907972669166    5.06927939302856
C         3.88111309171521    7.84951501669426    3.08462140175433
C         3.53363532132480    8.81304767278333    1.02797654457855
H         3.45121664549253    9.55063431086453    0.23973747837786
C         3.82327451187591    9.16436086593136    5.94756541565776
H         4.71672029068045    9.76422852016610    5.80869392781184
H         3.73263799782634    8.95097034774030    7.00820188737477
H         2.96146555072625    9.76115656167486    5.65631679662604
C         3.60552148807715    7.41366849162716    0.84314261034234
H         3.59908189882743    6.90039382716833   -0.11069797780521
C         3.82361224549079    6.82003655935773    2.10456564329622
H         4.02482003263006    5.76979913317296    2.28214776608166
C         3.69201763753153    9.08217538158424    2.40156678182880
H         3.77090956409358   10.06657360824574    2.84786045258051
C         5.12248903421271    6.24135028251812    5.50772969013571
H         6.14649951976212    6.55202979381388    5.33191093015382
H         4.96366621154414    5.30077190342144    4.98793797542532
H         5.01325389527696    6.04941764552367    6.57025529254267

