58
CSD_code = GIKDAF | q = 0 | S = 0 | Stoichiometry = C18H32Cl2N3OSiV | MND = 6
V         0.62123308218593    4.01583779948127    2.93237588360590
Cl       -0.57190712120477    5.85616479168390    2.80933924857618
Cl        1.09559704767192    3.50864390180833    4.89707319380601
Si        1.70812127381478    0.66416102024161    2.76674889762139
O        -1.17274884769411    2.99298101291522    2.94564236085608
N         1.47460711700550    2.27973114904391    2.20269076487516
N         0.93022621184663    3.99875325324897    1.03911164639566
N         2.36577926426085    5.30953747371760    2.65619687868047
C         1.53463658430249    2.82105742594612    1.00872765671208
C         2.18861599491191    2.26298514435426   -0.18525213833084
C         3.43502154638665    1.64618504640247   -0.10239452540391
C         4.04298881003649    1.14553498076710   -1.23782756900329
C         3.41725506970295    1.25320589543600   -2.46946767892332
C         2.18019930001833    1.87090349076353   -2.56216000807403
C         1.57063068590499    2.37820146027308   -1.43048609842453
C         1.73868791835376   -0.64095397303137    1.36506945876675
C         3.32787450781839    0.61590628147473    3.78159713753453
C         0.24799461826401    0.20468385149802    3.91298832235746
C         1.45418558656733    5.12995099610956    0.34044708403252
C         2.14223483085539    6.03990454373412    1.39882518751775
C         2.50077875794082    6.26046102454858    3.75881606317311
C         3.59860560643372    4.53010711971299    2.57152357264168
C        -1.74272555853069    2.38496967981904    1.80339810491290
C        -3.06633510385161    1.74364402431068    2.26436000622221
C        -3.20495075422679    2.20214595368546    3.72273710611162
C        -2.24458911190282    3.38804489130213    3.78273186549357
H         3.92167262505355    1.57138786382188    0.85861624743325
H         5.01074500019650    0.67082004535748   -1.16396434395956
H         3.89290974874837    0.85865560236025   -3.35504554944368
H         1.68949151377097    1.95635977735274   -3.52077431438375
H         0.60311846060736    2.85625867753921   -1.49662653888130
H         1.43645471192342   -1.61046016783793    1.74676070727658
H         2.72779151419759   -0.75248731181225    0.93625171782052
H         1.06370532836580   -0.37864536519660    0.55562513111491
H         3.47189255509035   -0.36413725955134    4.22427883641948
H         4.20767495629733    0.83872176264247    3.18472625197248
H         3.28136633645674    1.33969358702730    4.58959661490706
H        -0.00596062250867    1.04075531569045    4.55747991375523
H        -0.64139933357816   -0.08024232081025    3.35780843266082
H         0.51598068767315   -0.63141503429542    4.55145473853893
H         2.17120518735591    4.82360788624831   -0.43629150688772
H         0.64154139952767    5.69223273256349   -0.13300941254570
H         1.47556342869932    6.87504405408684    1.61714892305012
H         3.09108085749913    6.43571439830925    1.00989286087170
H         2.69867817786870    5.71134311152880    4.68022442655836
H         1.56959556116615    6.81402614892990    3.87966255363462
H         3.32254817505652    6.96518921869151    3.57279387608441
H         3.67996896844624    3.89182410464352    3.45231917782841
H         3.58672771398669    3.90022019249969    1.68440365493805
H         4.47337638783032    5.19424664265233    2.52049219947332
H        -1.92483760272120    3.15507210631001    1.03799465563881
H        -1.01984567298139    1.66107596437976    1.41947248866110
H        -3.03485515478285    0.65882384757448    2.18700514077838
H        -3.89695095036164    2.10320746515253    1.65906576778680
H        -4.22361653521982    2.47961481911938    3.98234658287188
H        -2.86772847161470    1.42058776401640    4.40356602128983
H        -1.83623867079954    3.58630139650713    4.77749418807264
H        -2.71427359811936    4.30175473524735    3.38861813493077

