28
CSD_code = GINVEH | q = 0 | S = 0 | Stoichiometry = C13H9Cl2HgN3 | MND = 4
Hg        2.68971209321731    0.54063870336567    1.70091876205190
Cl        2.57360754133959    0.55274741981841   -0.58652139961246
Cl        2.28863763740448   -0.42335143071337    3.72456464284462
N         0.80823544650201    2.45509955341803    2.12470971068634
N         3.40083803948223    2.81010748988155    1.83833703121897
N         5.30137897213080    1.63948634376685    1.47427568228775
C         2.66893089095271    3.90071894189726    1.81255672374671
C         4.68385099734889    2.83449537391017    1.46315363086003
C        -0.44712883809002    2.20375474038241    2.44287471875590
H        -0.75375226365508    1.16872925690964    2.37372781049121
C         1.25551288287688    3.71383836551611    2.18699788135180
C         4.53802189118796    5.20666734371586    1.05467829414637
H         4.98394103732936    6.14050879441823    0.74242625604786
C         5.32379571578470    4.03561364011364    1.06097005120494
C         3.22044180821905    5.14241763115899    1.42023856144084
H         2.60131254586685    6.02426761560974    1.38459286232343
C        -1.33802169200098    3.19131669414307    2.84636633393538
H        -2.35643307097366    2.93893026829154    3.09457286151857
C         0.43620960032214    4.76492088884571    2.59197503020839
H         0.82103349830852    5.76947500412591    2.66749873554980
C         6.67519430947813    3.94526342435310    0.67060520630419
H         7.20097708008946    4.83545754029289    0.35576805060545
C         7.28513046562613    2.71925468277282    0.69007971200744
H         8.31555841988451    2.60389867139392    0.39308163642339
C        -0.88127769878872    4.49526261149049    2.92687362390704
H        -1.53578455610633    5.29216380089657    3.24784263155232
C         6.54939334639387    1.58802088591547    1.09622076182350
H         7.01208389987168    0.61039574430911    1.10581419631675

