43
CSD_code = GIRDET | q = 0 | S = 0 | Stoichiometry = C18H15BrCl2N2O3PtS | MND = 4
Pt        3.21890213981576    1.99266931416298   14.39895543511989
Cl        1.52305934597946    0.70146344375797   13.50741581471650
S         2.02829941748678    2.36772266556692   16.25102254803206
Cl        4.84058178679877    3.41907303648476   15.21788818760487
O         3.37248765884411    4.40309481440373    9.05049570124492
N         5.39553815862737    1.17233325890777   10.90264875168280
H         5.61108290863973    1.33966079151824    9.92516117959567
N         4.38236327924719    1.50648588694965   12.84050340917201
C         3.02073102149729    3.88563246122755   11.74839682112746
H         2.88117515063979    3.69276388696364   12.81342107369862
O         4.76982074505874    2.72243731405210    8.84994493165269
O         2.54254817660022    1.64579590570481   17.39229713191222
C         3.83487769663341    3.07707114330382   11.01165549533604
C         1.08837630867960    7.07777345166394    9.83824709452069
C         4.51561767897398    1.94211213982663   11.59136266402433
C         2.35058409946797    4.98370867407191   11.14754077232684
C         5.85308681614712    0.19488357507337   11.73965002752336
C         2.55465127703052    5.19920898507083    9.77222898776640
C         1.50174421118202    5.85253687750446   11.84829761423722
H         1.35228808139517    5.69106660174768   12.90414521414082
C         5.20162645949802    0.41755593154497   12.97289392383344
C         5.43231921916537   -0.40524414903885   14.07342057404188
H         4.92622132738514   -0.21978880481591   15.01272559076776
C         4.04347347353857    3.35471171392144    9.58362681190049
C         1.92068347077730    6.24782182233617    9.11347402350482
H         2.08913043246089    6.39365220891421    8.05870120491005
C         6.74921304097704   -0.85424482906790   11.57913091676422
H         7.24742144044821   -1.02734106619465   10.63867509710495
C         0.87471429279109    6.89070655630563   11.20454905518807
H         0.22163556083662    7.56176427970281   11.74000500949974
C         6.32277277609071   -1.44090894494031   13.90104840886560
H         6.53351976398059   -2.10422651187457   14.72539212826353
C         6.96777124315602   -1.66005266533229   12.67676019983298
H         7.65623735145247   -2.48704001203599   12.59337183349330
C         0.24387823526382    2.02794996038599   16.16280702269523
H        -0.18213459671139    2.60864964669790   15.35321895299247
H         0.11636858786263    0.97028530713240   15.95965869554303
H        -0.19706754265416    2.28444395159276   17.11924561003594
Br        0.21835666268195    8.50983240197501    8.95800531660982
C         1.93203767926793    4.12754594704469   16.70514252038852
H         2.94712457958397    4.50815977808926   16.75827710349368
H         1.37216766479142    4.64753465465722   15.93656243491126
H         1.44711291861104    4.20773859503397   17.67102870992488

