69
CSD_code = GIXYOB | q = 0 | S = 0 | Stoichiometry = C21H41CoIO2P3 | MND = 6
I        11.43038751180712    2.54826627100838    1.83004714006631
Co        9.26514862624939    1.36943746381668    2.69612507424603
P         9.00930044182212    0.46246312314571    0.69869282977090
P         9.43372217860796    2.52480957849773    4.57267244753418
P        10.29769580922345   -0.48763652140575    3.57125113453359
O         7.58872313309384   -0.41354513664053    3.85156863326077
O         8.16751027501282    2.84366218389859    2.02216275304664
C         7.62349141203605    0.65545776871506    3.27792425609609
C         6.52843739124206    1.52789955495955    2.95948220607402
C         5.20448678849444    1.23802672316484    3.29684819744370
H         4.98064193110257    0.31877445574536    3.81928278934248
C         4.22247781307426    2.13525699503814    2.95385379112986
C         4.59170268184593    3.30581989021226    2.27779217077392
H         3.79055096547031    3.98195437909525    2.02590464569215
C         5.88347157322123    3.63908455532860    1.92204246720584
C         6.90498287228389    2.70777006474188    2.27425239138847
C         2.78511292508927    1.87160211746486    3.29851442639481
H         2.14008503959256    2.65280691366111    2.90369459282044
H         2.65333179721572    1.82997554413622    4.37984826701833
H         2.46218769420595    0.91518129845999    2.88835109771237
C         6.18848851800350    4.92926689499696    1.16621223950739
C         6.71777230075093    4.58521356263667   -0.23137470034640
H         7.69522240593826    4.12399166366811   -0.14738017314197
H         6.82048129418158    5.49102748932350   -0.82532244850003
H         6.03792391433654    3.90968026048491   -0.74894635259290
C         4.95581765582633    5.82554896053540    1.00540463882162
H         4.52966258825985    6.08935619428339    1.97122886940663
H         4.19343097102102    5.34820937592752    0.39339039647746
H         5.25155523300646    6.74706485706427    0.50758054173946
C         7.26714740787009    5.73475891394039    1.89724849468857
H         6.93433920998195    6.00653466379611    2.89771192345078
H         7.48306194441396    6.64928327385021    1.34873115430473
H         8.18122463799199    5.15467268867563    1.96140854287591
C         7.66467223259937   -0.77054011082438    0.47182547547591
H         7.76615110985790   -1.60143876950942    1.16494878064067
H         7.67104166134758   -1.14229503607216   -0.55311220732477
H         6.71344343062160   -0.27534639666339    0.66923321113262
C        10.44308868556977   -0.35435373996388   -0.11111621088031
H        11.00302019503722   -0.98637972885619    0.57318737532219
H        11.10896661192826    0.42826144262083   -0.47330539786613
H        10.08862846706464   -0.95158917945044   -0.95139694293022
C         8.56980010321487    1.59928163693687   -0.65573872572199
H         9.25841488707605    2.44286980329609   -0.65608133325533
H         7.55228906041225    1.95588740704626   -0.51381157334515
H         8.64469542792257    1.06452860567008   -1.60368813215672
C         8.28173979940952    2.12986208584934    5.95049532110650
H         8.33727189878798    1.08067159618486    6.22815494672975
H         7.26589131270307    2.34119155362751    5.61537580165728
H         8.51190712083035    2.75262878948064    6.81532898770286
C        11.06066799634576    2.61127987939375    5.42405773133907
H        11.57062829305859    1.65152373322374    5.44169511625304
H        10.91585073410724    2.96669124402824    6.44432910133837
H        11.68456388457856    3.31609995946482    4.87554205161677
C         9.11347021475797    4.31481861698798    4.45775476510873
H         9.73082498516178    4.74323740233518    3.66982505816117
H         9.36470206443535    4.77768400307880    5.41332047976617
H         8.06345727521506    4.48379921948985    4.23059284729047
C         9.84642621403456   -2.16114145346939    2.95988046332598
H         8.81107645310894   -2.35832934506542    3.22699398866062
H        10.49093032344603   -2.89082530816243    3.45122380013216
H         9.96607430236635   -2.24935058272789    1.88334657463000
C        10.13572284419965   -0.87440056871506    5.36070827779722
H        10.45146447990942   -0.04544300256920    5.98857472819622
H        10.75532674870095   -1.74444660985500    5.58060437407302
H         9.09543057990569   -1.11208061402945    5.56930203420881
C        12.12634016690681   -0.58859551857143    3.40623821936497
H        12.59386128253743    0.26261191256533    3.89740836742202
H        12.41067303486420   -0.55021926160864    2.35651986045952
H        12.49250917550390   -1.51392968796152    3.85107834578601

