54
CSD_code = GOCJIU | q = 0 | S = 0 | Stoichiometry = C22H28Cl2HfSi | MND = 12
C         0.66592658481047   10.76726370943920    3.19108427919077
C         0.21438038208470    9.60272517107753    3.90269408592937
C         0.45522443661937    8.43241977982617    3.14715145934940
C         1.56723181975952    8.10020918312917    0.80728011340159
C         1.96635917613914    8.79092863894205   -0.32302303139427
C         1.93907562796477   10.20711649888533   -0.36176496457609
C         1.51484312670876   10.95417096405215    0.72403394917652
C         1.15793655402873   10.28630429205325    1.91697504365440
C         1.08964873676259    8.84193133921477    1.91449263410890
C        -0.60984047283486    9.58720373075761    5.16044365835389
H        -1.66108058024042    9.44139685557887    4.90124532136738
H        -0.53516033960928   10.52144604083520    5.70447781230855
H        -0.31363024545713    8.76673661073410    5.81513691624306
C        -0.15081308932763    7.09028609663861    3.46218233126114
H        -1.02556140889976    7.22042098696630    4.09700033346610
H         0.54784666891170    6.43276533568974    3.98236615556595
H        -0.47142937870148    6.59730110107747    2.54796908120735
C         1.69204298857324    6.60326846118553    0.90203308773199
H         0.82550783808855    6.09830584519228    0.47294353609888
H         1.80013938548974    6.29919208917144    1.93920370541996
H         2.57977872850193    6.26878582216977    0.37151065071882
C         2.41034047834964    8.03811805087285   -1.54661810737960
H         3.49802013932313    7.96489782013551   -1.57233952783998
H         2.08072949989751    8.54195363364431   -2.45085509909423
H         1.99890133952120    7.03408523854522   -1.56001548054851
C         2.40124444159264   10.90373308191061   -1.61167041834882
H         1.62562553206771   10.88495413583987   -2.37854448338611
H         3.28602632666185   10.41329274628385   -2.00856314068967
H         2.65919805050303   11.93825728058803   -1.41339170250630
C         1.30683740979710   12.43663152718013    0.60193021788941
H         2.24700862916906   12.98439052556877    0.63256171423745
H         0.66723536621690   12.78629998768134    1.40562761699534
H         0.81548862845182   12.66339082149584   -0.34236739852695
C         2.06715223657000   13.80195494528998    3.41978509408633
H         1.36161280268799   14.44171879062185    2.90292076339230
H         2.85627865948317   13.53909118988796    2.72615749291588
H         2.51319312600227   14.38951918827463    4.21693224839375
C        -0.14437385490629   12.98936370082757    5.33931665714113
H        -0.06966347338576   14.07059921628874    5.36515182920338
H        -0.05309813819929   12.64062433419921    6.36248759871629
H        -1.13932877830143   12.74213063569130    4.98572928978522
C         2.60633747994819   11.34845191572477    5.09450909080187
C         3.94206506619135   11.27856334067467    4.60307126699207
H         4.40291417087170   11.99442227605853    3.93603566738101
C         4.61759047023550   10.23385320373802    5.26541410584292
H         5.66763193103584    9.99981524898470    5.17004389383226
C         3.71457372221598    9.62432063383433    6.15130213443943
H         3.95537118003526    8.85066479425848    6.86566779480777
C         2.46689808113500   10.27164095109801    6.02614299213375
H         1.63309430729993   10.12819080375478    6.69922821512966
Cl        4.24556341743324    9.41538146576386    2.11601772984501
Cl        3.10670656296534    7.18824128030437    4.30100470840853
Hf        2.62505589763786    9.39935136791257    3.76585700289725
Si        1.21914275211498   12.28421731444909    4.19933407446934

