61
CSD_code = GOHVOR | q = 0 | S = 0 | Stoichiometry = C25H29I2N3OPd | MND = 4
Pd        7.78601062262148    3.25697001991500    9.91613758657114
I         5.58621117004497    3.58235489307742    8.50815570297046
I        10.04635050079591    2.66926441813675   11.09307420742626
N         8.07538365856402    6.10746621764602    9.41235222563478
N         9.39946516058126    4.98609211186463    8.08750760764798
N         6.95431602907503    1.65417701939062   10.79616245771531
O         8.34733791341473    3.04976421492340    6.05699386556299
H         7.55368439156445    3.45036658030793    6.44265273506280
C         8.51259613576751    4.87627303592316    9.09482998712621
C         8.68474662536070    7.03931878978049    8.60142081327073
C         8.51430829617400    7.57307391142429   12.00464512347012
C         8.83975328963717    8.71260260317105   12.74320229292505
C         9.54337071457220    6.31801431430133    7.75186311424329
C         7.32933089192686    7.55759426959680   11.26442347900518
C         8.58519667654410    8.42010512575384    8.51729182200111
H         7.93604050034099    8.97858551518543    9.17027711047440
C         6.42503362743983    8.62680412617923   11.31228350610442
C         6.98315216810334    0.43474790691728   10.27187240906795
H         7.51490960088527    0.31963785597362    9.32868796451129
C        10.14222238536013    3.89350892105705    7.49570640746493
H        10.89221381377944    3.53092453906184    8.20850215580978
H        10.64701281807311    4.27847684942347    6.60890804553263
C         9.36455632530017    9.05170117762399    7.56815729562695
H         9.31317337511387   10.12546175748010    7.47535922477693
C         7.03018076773028    6.36656511366599   10.38871497704545
H         6.91925908513817    5.44829667980510   11.00610571844045
H         6.09436897496921    6.51139868412316    9.84376034447831
C         7.95367618098379    9.77530467771610   12.75955054703297
H         8.20855611539191   10.65637225218724   13.33183921011743
C        10.12569046532990    8.80708666254377   13.50775040026718
H        10.12860523215551    8.11339455670792   14.34868782772212
H        10.26025272805521    9.81240105535417   13.89886156032477
H        10.97432576462755    8.56615957463582   12.86983675551421
C        10.21619783644105    8.33779983661008    6.72743934674189
H        10.80735991786506    8.87207478160057    5.99989865635886
C        10.32255739103044    6.96286592308682    6.80378028300143
H        10.98541237388284    6.42164870328373    6.14767082866094
C         6.74591068549135    9.74842847816324   12.07820644278208
C         9.24981853759978    2.71083292647451    7.07032998324061
H         9.90544818320540    1.93590992359478    6.66139115859545
H         8.72938143221316    2.28209264555682    7.96318296551444
C         6.37062322072203   -0.64357243298799   10.88545156081189
H         6.41497872228247   -1.61916099212192   10.42872445040797
C         9.43813888866599    6.39327802552264   12.01573534222753
H        10.18710157933525    6.47320814266784   11.22612351511957
H         8.89654559131786    5.45758625090301   11.87674858757540
H         9.96652153518616    6.32376710949421   12.96213454997516
C         6.32163580513644    1.85665519857869   11.94713556580194
H         6.33017386923994    2.87704428900200   12.33744966134493
C         5.12923473222526    8.56913964956037   10.54856011273043
H         5.30714638088065    8.52657879058335    9.47337048358885
H         4.51950204013871    9.44276559076773   10.74658035059679
H         4.54966095336287    7.69201476751081   10.83399625377747
C         5.70684316305862   -0.44027256148756   12.08502987459445
H         5.21764404317109   -1.25969992812193   12.58883344042952
C         5.83314802941422   10.93675601954009   12.17899778561324
H         5.63979923475187   11.36875733395066   11.19773943612484
H         6.28590746734754   11.70334337308625   12.80274857054695
H         4.87912632220855   10.65811413462687   12.62536724962311
C         5.68279227878222    0.83609213147389   12.62679877925494
H         5.17859777879375    1.03998645318998   13.55790028234598

