31
CSD_code = GOJTAA | q = 0 | S = 0 | Stoichiometry = C12H14Cl2N2Pd | MND = 4
Pd        1.69313591027702    2.42037956532710    0.97306315502335
Cl        2.66990510012727    1.38088508227316   -0.82213604579478
Cl        0.73073717710643    3.49621417817825    2.75467371905639
N         0.04136538444168    2.61740585020740   -0.03641839440021
C        -0.19467941473207    3.67677936640907   -0.81421265264426
C        -1.38538856902806    3.78716550619011   -1.52107176957848
H        -1.55909542936588    4.64999869006850   -2.14484621823693
C        -2.33636952993734    2.78660246736121   -1.41571539762897
H        -3.26732894513990    2.85610429831129   -1.95717482406075
C        -2.07168632060212    1.69431746062119   -0.60251692990813
H        -2.78531876495083    0.89382964222564   -0.49270346011373
C        -0.86533016242149    1.64952850706165    0.07164551353344
H        -0.60995401917641    0.81263715303890    0.72348538456720
C         0.88959383805238    4.70457619454164   -0.86498730155347
H         1.07444995909616    5.07785142857064    0.15088435543137
H         0.62062882378146    5.53563549675344   -1.51098185822635
H         1.80721578342846    4.23412417842430   -1.24111178754023
N         3.29241200949368    2.09126242818285    2.03140618788145
C         4.30078997721712    2.96469458999540    2.08785854948905
C         5.42974952967826    2.69701287334144    2.85169358757459
H         6.23496499513486    3.41411667765824    2.88569559670743
C         5.50791569130084    1.51052406271916    3.56071460823978
H         6.37779890057351    1.28557400687979    4.15853830593069
C         4.44947945050074    0.61665154760759    3.48888669158594
H         4.47052905006353   -0.31819659044604    4.02528341480352
C         3.35655491696080    0.94819499582678    2.70956269993751
H         2.49930491437090    0.27916439942003    2.61974496027402
C         4.12616980806511    4.21660676115847    1.28985875099785
H         3.98067482616566    3.94927789734722    0.23492489401185
H         4.98926218633872    4.87020102345566    1.38033150204724
H         3.23221292317574    4.74358026128832    1.64742476259636

