42
CSD_code = GOPDOH | q = 0 | S = 0 | Stoichiometry = C21H14ClI2N3Zn | MND = 5
Zn       13.11333468919645    2.61064925430609    6.66936114953156
I        11.63993179486087    3.45874405214162    8.54662738267620
I        15.62071491850248    2.50179904563517    6.22928658472062
Cl       12.24643594325213   -2.12276742883393   -2.97254209587895
N        12.81334360115331    0.41758010553946    7.12061340958622
N        12.34439206724767    1.70386967424124    4.87869190429729
N        12.63531510721331    4.29007390178185    5.23593043293215
C        12.93933521820146   -0.13798329020900    8.31144857023682
H        13.20326531287432    0.52618526492724    9.12339556494252
C        12.74355963782267   -1.49266080606099    8.53105217875616
H        12.86070064992848   -1.90631322453749    9.51926767014240
C        12.38708544197913   -2.28644948365542    7.45340018601013
H        12.21147796113464   -3.34410398428603    7.58111522409628
C        12.25404259006875   -1.70422560496078    6.20405954901212
H        11.95893867290706   -2.30109394930169    5.35632215845208
C        12.48643515209928   -0.33758642815398    6.07106644161272
C        12.38506565933895    0.37773995410739    4.78961444638228
C        12.36499076754328   -0.26570130009451    3.55710427518406
H        12.41271835449584   -1.33999479021761    3.49259097674051
C        12.29349403364595    0.49438090172279    2.39181843727958
C        12.24099130197480    1.88100688372621    2.51514613056992
H        12.22770475986299    2.49611071032501    1.63071553819529
C        12.27383148583991    2.45298365315069    3.78234224350934
C        12.27339082740009    3.90618699739479    4.01105705756054
C        11.91736049084905    4.83349664995925    3.03505529327234
H        11.59702802989327    4.51278722807209    2.05706819758923
C        11.96197260688477    6.18209659884561    3.34606765380715
H        11.68998683618186    6.91960831221879    2.60587809793276
C        12.35634546458865    6.56657703767539    4.61695146380505
H        12.40804976510896    7.60538231823812    4.89910191093647
C        12.67771143997019    5.57589769708978    5.53178281203314
H        12.97618467121623    5.82471781066897    6.54125660686994
C        12.28452757406985   -0.14752895560651    1.07199973834276
C        11.44204707644944    0.31793431757086    0.06424794668443
H        10.77516029821348    1.14425583991027    0.26084574278712
C        11.42244239266024   -0.28889670627433   -1.17614274694692
H        10.76097758156654    0.06740560285909   -1.94981208776402
C        12.26214590061730   -1.36523707859078   -1.42307111457329
C        13.11426939981144   -1.83721633910327   -0.43532965883666
H        13.76880273999566   -2.66941931924181   -0.64018746276539
C        13.11740877909991   -1.23282659100737    0.80644680124503
H        13.79598300427824   -1.58766453197168    1.56755538903378

