40
CSD_code = GOSJIH | q = 0 | S = 0 | Stoichiometry = C11H22Cl2N2S2Zn | MND = 4
Zn        1.65159031625222    6.90271135050390    3.15310724232563
Cl        0.24290443070584    7.97328545112906    1.81139396916321
Cl        2.78063742836193    7.95506161409275    4.75355686351171
N         0.35764232367502    5.24897957751456    3.81686815132669
N         2.86830298605496    5.84281426184375    1.65473653942097
S        -0.12569024435260    5.61260541442568    6.98014655854659
S         5.85772750626833    7.02733730305030    1.82685534713065
C        -0.65502916593025    6.67210145702349    5.60535531829285
H        -1.58598959081780    7.14492813414159    5.91236534394672
H         0.10498536101791    7.44014293607422    5.45065027833662
C        -0.87973612307582    5.84939699674926    4.35120391588227
H        -1.60776942919139    5.05416219551800    4.56863314463802
H        -1.29364162855559    6.50301119678727    3.57911904452208
C         1.32353207064243    4.96558088549969    6.09933143422786
H         2.01259811598311    5.79193948686365    5.92153606713539
H         1.79140165927362    4.23665914822687    6.75834175325614
C         0.90287935500700    4.30170526056890    4.79969086194781
H         1.78220043939553    3.81811223700436    4.36931684689991
H         0.15125362394664    3.52762145307040    5.01799472604076
C        -0.01298010702670    4.54081492364729    2.57898561606328
H        -0.55617559327789    5.25286538750996    1.95405912436509
H        -0.69700877029244    3.71832120670887    2.83641859101153
C         1.13620588310777    3.97026627855389    1.74949612577427
H         1.80674231580846    3.37014353944286    2.36329511029266
H         0.67896981921871    3.28609644716023    1.03064615109868
C         1.91021372342444    4.99574488761680    0.92274642936677
H         2.45030568124794    4.46281917330469    0.12591662270936
H         1.18518695086044    5.66480467345539    0.45443596332368
C         3.36171498658410    6.85251062290689    0.69858740179565
H         2.49657847436419    7.39950719847916    0.31525990622353
H         3.86104167747158    6.34751917776021   -0.14126875527181
C         4.32169608155533    7.84928946677532    1.31916837875885
H         3.88599989464909    8.33451139573741    2.19447453206473
H         4.59627123267309    8.60711968598543    0.58782923615656
C         5.02110949240283    5.84001935402895    2.91535853701967
H         5.79144393025887    5.18274024338446    3.31427798552247
H         4.55549376987561    6.39384022903399    3.73130109945287
C         3.99792601477131    5.03381907213627    2.13441948238608
H         4.49546936527323    4.55518190682804    1.27700890596022
H         3.61379574238811    4.25140876946150    2.79208014938017

