64
CSD_code = GUBTUT | q = 0 | S = 0 | Stoichiometry = C22H32AuClN2O4P2 | MND = 2
Au        4.32502374949897    2.12437698308386   19.65562258620930
Cl        3.29731772057537    1.12560358040330   17.89848663394271
P         5.32714982294402    3.26413917687342   21.29743113375843
P         6.51314562594782    2.08647082780578   23.22064586088528
O         5.26884083426000    4.86316646644223   21.26155392363761
O         7.11125911022037    3.11721856472832   24.32617516972633
O         5.06139882817898    4.53759114851888   18.57074317542193
O         9.08382783441271    4.72852452142581   24.98127363196447
N         5.00321472911965    2.89393657278994   22.92340999462700
N         6.91495585732540    3.00069320243798   21.78967063475961
C         3.71811251269613    2.48189599739737   23.45714674013273
C         2.67377526368977    3.45836992174159   22.91828217863958
H         2.91058587969030    4.47153048925200   23.23524192749728
H         1.68171304320225    3.19736165760824   23.27777421688737
H         2.66691688030159    3.42853283488158   21.82589448163344
C         3.81062661258904    2.57383513877316   24.98082969717095
H         4.56286022231517    1.87525012683670   25.34517417227453
H         2.85511681854414    2.33078827049386   25.43829763060611
H         4.10497477340144    3.57751536028984   25.27730381266969
C         3.37594625077581    1.05074320602791   23.04027620590089
H         3.31414673964912    0.97678756971293   21.95404746643828
H         2.42249516519596    0.74585280802228   23.46447420696110
H         4.15063678468380    0.36876983200640   23.38883490163887
C         8.05756951599263    2.72291431690096   20.94067938933809
C         7.91584072441135    1.36427133189364   20.25311698232185
H         7.80842790908071    0.57920109682904   21.00108376258405
H         8.78957777289221    1.14965048997224   19.64246374148154
H         7.03173555582817    1.35552980575606   19.61443351813404
C         8.13139789508550    3.83994214425890   19.90361671398520
H         7.20569283718874    3.86005285808045   19.32908604245062
H         8.96682019877943    3.68239528103617   19.22575619844650
H         8.24980832121734    4.80010096089955   20.40086602119178
C         9.28928763414201    2.72891040917690   21.84653270287732
H         9.33962146586938    3.66622901322845   22.39571274996177
H        10.19676876255796    2.60361105591385   21.26125059030269
H         9.22012954694888    1.91210366789350   22.56693875075119
C         4.40695962972327    5.65241589316751   20.52960178312334
C         3.68816105288490    6.62984029284710   21.19317863129982
H         3.81577679400231    6.72660817164675   22.26000368868088
C         2.83112823968758    7.46359232234368   20.49395021458601
H         2.27418487018562    8.22358036439950   21.01853626514319
C         2.69158226451209    7.30811936684786   19.12868813627721
H         2.01804539188563    7.94384933589817   18.57518547832952
C         3.41474484427644    6.33870428764234   18.45231910697341
H         3.29045617906545    6.23187927807267   17.38720626161212
C         4.28562161937058    5.50524268457539   19.14001353636199
C         5.00640976779423    4.36632171866930   17.16721605455239
H         4.01829001688038    4.02502993224148   16.85040148291032
H         5.73228045175422    3.58850367222606   16.93772635100979
H         5.27767916626579    5.28923097445811   16.64845897475095
C         7.89391407670589    2.75013581469868   25.38778070263491
C         7.68335291236794    1.58400582339780   26.09722546750575
H         6.88723139839026    0.92598937851119   25.77769409399270
C         8.47886213102781    1.26699787418596   27.18676943628525
H         8.30416445605645    0.35310529217028   27.73209828300420
C         9.48831625398785    2.12885724169955   27.56492360098554
H        10.11184600683420    1.89561046721904   28.41422492884774
C         9.71668814845464    3.29937564134967   26.85748931800762
H        10.51697096871375    3.95202727125306   27.16752280086548
C         8.93235923930721    3.62378597622047   25.75898867283389
C        10.08780360148926    5.65322524412209   25.31874888806000
H         9.93227577620744    6.06989546479570   26.31898542592999
H        10.01118749578049    6.45125555831009   24.58196102772026
H        11.08488804721362    5.20374796760884   25.26277384050405

