26
CSD_code = GUGZEN | q = 0 | S = 0 | Stoichiometry = C6H13Cl2NO2PtS | MND = 4
Pt        0.45910559170256    0.33360369453007    1.80779425310094
Cl        0.71608004518893   -1.48530025860622    3.09219913580959
Cl        2.07027429549139   -0.29417000422125    0.37873000761850
S        -1.13819935336202    1.01327044122977    3.28522573846988
O         0.77650117030948    3.02158685725454    1.71555592496624
O        -1.89306664894269    2.17509211000883    2.80484920394936
N         0.17141255916155    2.14349580214641    0.79302269807055
C         0.31853002805676    4.35426555998792    1.54771061520370
C         0.33135927934777    4.77688846195621    0.10866489976779
C         0.49691081583815    3.89355761523065   -0.86337793244662
C         0.64701029448453    2.43311186855983   -0.55870546781614
C        -2.34132169621255   -0.20892671897090    3.88467731621198
C        -0.39700521571005    1.46185853388036    4.88011391677271
H        -0.84110633049225    2.32387408531470    0.84381922358255
H        -0.69650172168879    4.45406820396648    1.96784457655005
H         1.00333921442819    4.96555781434493    2.14009048233220
H         0.19911276213637    5.82994970029259   -0.08031599414858
H         0.53656750573396    4.18333838803882   -1.90100801015443
H         0.07955355036059    1.81757319302598   -1.26016162865019
H         1.69769155882263    2.12500931627258   -0.61778765717710
H        -2.93044016942438    0.23061115556751    4.68059783517664
H        -1.77593105479608   -1.06962907742603    4.22292068018191
H        -2.97906575638692   -0.48237790646873    3.05127097795528
H         0.34078279675317    2.23531363254302    4.69301373926808
H         0.08286068619079    0.57055420239703    5.26773415316705
H        -1.16775420699337    1.82762332914422    5.54832131224227

