59
CSD_code = GULJIG | q = 0 | S = 0 | Stoichiometry = C27H25I2IrOP2S | MND = 6
Ir        7.58824455905813   14.31319380607074   11.98480018716644
I         8.22974528576841   11.72435559327032   11.65502189469627
I         7.95103009232841   14.31854258431138   14.73225851638773
P         4.25586815302975   15.32795808108686   12.79645216244837
P         6.97811637848555   16.53327385623897   12.44838684093892
S         5.12115000359059   13.66903865527404   12.19545370301578
O        10.52310399411984   14.83120703394148   11.66419030415405
C         9.39627612945270   14.65410412060979   11.77393601220919
C         7.18306272680970   14.40692821560292    9.90123001964997
C         5.45096756678860   16.54981005839396   13.49141813210294
C         6.59833076991916   17.68624857532849   11.07804191084285
C         7.44339785953085   17.62547679202028    9.97128031428872
C         7.25859123644543   18.47099092646176    8.89443775056085
C         6.22279698057582   19.39031766182207    8.90771166960409
C         5.39603812816633   19.47617228773061   10.01409514082881
C         5.58622926998316   18.63857615679667   11.09852071739678
C         8.13427600763330   17.58893363100923   13.37739623958469
C         7.87079258080220   18.10616585898018   14.64001202682969
C         8.82435504113590   18.87801825445360   15.27986998161387
C        10.03987109410206   19.13893086452909   14.67210939249939
C        10.30489819418773   18.62842240633115   13.41183490387690
C         9.35697760044675   17.85828514636564   12.76731248514390
C         3.37968526517574   16.24504611202183   11.49238562709466
C         2.62466468345102   17.36844766193449   11.81750591576830
C         2.01176722041625   18.09121351719619   10.81260987645955
C         2.15769685672511   17.70267742311008    9.48892090833854
C         2.90197827520976   16.58053524206109    9.16765934368969
C         3.50973150123301   15.84547132427986   10.17021120823048
C         3.08056879266289   14.96207994599722   14.12803306578296
C         1.70750761968587   15.00078061008164   13.91873305890569
C         0.85303945236214   14.61470464092780   14.93592017250146
C         1.36456472178337   14.17921495863159   16.14758986643276
C         2.73529739113395   14.11358911299842   16.34409483297894
C         3.59736095442475   14.49610297411632   15.33424387485860
H         8.07345623456940   14.46457219962452    9.27641940409502
H         6.54672400256743   15.26234786776705    9.67239166969714
H         6.64466754856849   13.50447970058597    9.61813684557659
H         5.73311058700840   16.18434455165695   14.48592506969884
H         5.00456351919393   17.54254317536719   13.58072115608448
H         8.24518130879434   16.89955737637323    9.95443378783098
H         7.91858358268858   18.40709724325110    8.04251958074611
H         6.06545879388395   20.04300888925561    8.06252458558464
H         4.59692530440521   20.20231664762355   10.03961835365662
H         4.93620030785256   18.74953731561840   11.95292232958773
H         6.94068963051589   17.90021609137475   15.14712731287594
H         8.61648069722998   19.26687286544561   16.26523709890620
H        10.78299787114696   19.73247261963751   15.18226300785859
H        11.25348139668458   18.82141700890013   12.93424484604568
H         9.56753621465425   17.45327542490886   11.78677471227044
H         2.51586169577575   17.66540129887100   12.85305366574057
H         1.42073954003177   18.96052790170786   11.06038330925593
H         1.68236416384269   18.27555849842866    8.70711248548652
H         3.00850158295285   16.27493425420347    8.13799695774671
H         4.08255487860295   14.95838048425911    9.93502121158913
H         1.31238349019558   15.32629557187898   12.96603283890327
H        -0.21447089596251   14.64640616299769   14.77702826295162
H         0.69275428428987   13.87600577167156   16.93618822389578
H         3.13597538198767   13.75464870028816   17.27948936021954
H         4.66649649189332   14.41076828832166   15.47975586681307

