69
CSD_code = GUMHOM | q = 0 | S = 0 | Stoichiometry = C30H34ClPPdSSi | MND = 4
Pd       10.54623882166312    0.33406841076992    4.58520311163877
C         8.97368717751476    1.65055345297716    4.41404893159995
H         7.99463223376236    1.18563276586011    4.25559820809917
H         9.19531423325752    2.32883959217938    3.58331535753684
H         8.94260892673898    2.23758718827725    5.33813654388779
Cl       11.85610394401612    2.16635359517642    4.87539236917004
S        12.63862853474930   -0.94385231163545    4.90065535529328
C        12.20713794959751   -1.87238505681850    6.34639902504190
C        12.70226833211249   -3.13250869269879    6.64016196046484
H        13.36802745667633   -3.63324964911629    5.95403657867243
C        12.32511070628446   -3.75156185466186    7.81852187713706
H        12.69765740529646   -4.74066032478254    8.04065899271282
C        11.48450026399083   -3.10981838686470    8.71201019012601
H        11.19139496098462   -3.60302432979244    9.62650563117597
C        11.03332652200693   -1.82722566594599    8.43984468800069
H        10.39732313621797   -1.31474066096989    9.14638006854426
C        11.39757966097135   -1.20461238500089    7.26246308504669
H        11.08595739917798   -0.17734939397847    7.04301997056250
C        12.86326275155809   -2.07660057385704    3.49487842939101
H        13.61525307562937   -2.80696811394849    3.79353456082482
Si       13.50367157464548   -0.84827665554201    2.12964754039230
C        14.12200607345890   -1.91300543286581    0.67600686432157
H        13.33050900722258   -2.50216021639422    0.22481745545064
H        14.90844998637282   -2.59326044822324    0.98465788857383
H        14.53054703628161   -1.27289074541681   -0.09652363923338
C        14.88933759523202    0.21440898644015    2.88011607808659
H        15.60270132784704   -0.37792384558430    3.44651160817115
H        14.46760481697803    0.95606664554776    3.55393840821116
H        15.43811185892866    0.74353342651503    2.10750827790384
C        12.02716297079360    0.23083394001867    1.59450401362752
H        12.36898892046892    1.09870082508798    1.03773898579367
H        11.48702003616182    0.61768937520768    2.48129617425350
H        11.31968943497536   -0.30415929851702    0.96315260835040
C        11.58417413847027   -2.77245283826106    3.03526063372531
H        10.88406289378845   -2.00724706075580    2.68548471249350
H        11.84444214421532   -3.40425596821818    2.18101022818993
C        10.92257705132690   -3.60633641336954    4.09122557770638
C         9.84441464109223   -3.10561905045174    4.83100116610538
C         9.31244935018562   -3.86577892648518    5.86751104159296
H         8.50294530119284   -3.46842021753620    6.46273432731128
C         9.80666458575513   -5.12792714252051    6.13976354311031
H         9.37977251455703   -5.70864190813203    6.94374218154459
C        10.83764884611466   -5.64625153623310    5.37555567133658
H        11.21421094294705   -6.63905934920658    5.57218435931193
C        11.39296414054468   -4.88345033758680    4.36437262169810
H        12.20873719402314   -5.28012122559718    3.77538213672508
P         9.18749289960928   -1.44625330873869    4.42604149493650
C         7.73545889755405   -1.32209557738656    5.52271596243894
C         7.87630513079788   -0.51940292321365    6.65178396107900
H         8.80880753757603    0.02041552175845    6.80361654504723
C         6.83270112134687   -0.38539405943893    7.54825630156497
H         6.94730835087507    0.23846961332029    8.42244967134012
C         5.63497450426935   -1.04283342199469    7.31711799878983
H         4.81591121101630   -0.93654825223802    8.01297867015655
C         5.48275148006913   -1.82663196414275    6.18497815292661
H         4.54454344193083   -2.32841697610574    5.99712048681766
C         6.52706263981848   -1.96933205311138    5.28841863090045
H         6.39740548847432   -2.57621310739938    4.40401168900229
C         8.44811734033193   -1.76984747609470    2.78857502298981
C         8.43158269472827   -0.72923516040024    1.86514795602201
H         8.86468423087645    0.22709430302473    2.14072376063333
C         7.88220112665944   -0.92068491247614    0.61029488779013
H         7.86908355955295   -0.10892692432150   -0.10183973494273
C         7.35508992969851   -2.15486309332966    0.26650810937547
H         6.92564175503582   -2.30624098362351   -0.71272647742815
C         7.39015177646441   -3.20080172503480    1.17471513878397
H         6.99248431758939   -4.16755203826136    0.90174582976982
C         7.93757056464192   -3.01453237386764    2.43126857177175
H         7.98449212531110   -3.83934529398801    3.12973197056444

