36
CSD_code = GUSRUI | q = 0 | S = 0 | Stoichiometry = C15H14Cl2N4Pd | MND = 4
C         8.74399063658729   10.89167324628354    1.17047178013803
C         9.23227285768337   12.51899383078809   -0.19598755333573
H         9.49116595032757   13.50815503405195   -0.51276315056672
C         9.02059291325721   11.37778830983002   -0.92116793300976
H         9.06481703637466   11.21717052580991   -1.98046594041333
C         8.22669811113722    8.04603858167220    3.07586658249011
C         8.58330656137324    6.72174640091621    2.88675499405871
H         8.97426013911962    6.40105156815182    1.92501943984739
C         8.82739701490140    4.44163698219754    3.77579703190931
H         9.15311044499637    4.10802292180795    2.80222405225620
C         8.71826637418014    3.56417680544140    4.81838494445959
H         8.96726765784399    2.52237062956792    4.68239594310492
C         8.28017030820218    4.00736528006440    6.07579208667864
H         8.20210155696966    3.30065338823721    6.88876016855045
C         7.95240496116529    5.32199931601789    6.27233793673889
H         7.61208016853949    5.66449027555915    7.23905149077778
C         7.72430097149650    7.61751595128172    5.38996800908700
H         7.39343049721441    7.95300221858086    6.36222011650775
C         7.81525269554002    8.49642797993715    4.35533113795444
H         7.55556315670696    9.53769916222703    4.46890466586926
C         8.49473225654080    5.80306919470649    3.94577973780763
C         8.04945605175616    6.25108631702988    5.21984293289780
C         9.12464729586205   13.09112809093324    2.25794595872196
H         9.56364034516850   12.53561351807769    3.09031996637180
H         9.77129228352244   13.93359685000612    2.00237480912279
C         7.73055397074619   13.58125975985499    2.63917628063742
H         7.27823134853678   14.12924027555231    1.81579693456955
H         7.79300869693143   14.23635718891270    3.50312589134230
H         7.09469654686764   12.73514602858058    2.88688600010357
Cl        7.70908834510276    8.17388921212476   -2.02176263380086
Cl        6.73160918983300    6.66491576000170    0.54427841727000
N         8.28616119052441    8.91300183233458    2.00189569430164
N         8.57008922477319   10.15490122886885    2.27651517993437
N         8.71930269248332   10.37035011020867   -0.06771846986271
N         9.06856667923627   12.20600361640802    1.12307490299978
Pd        7.94057386850734    8.48506260797166    0.14767259447868

