50
CSD_code = GUSXEY | q = 0 | S = 0 | Stoichiometry = C22H20Cl2N3O2Rh | MND = 6
Rh        7.19931848489255    1.23787731860664    6.98138852172125
Cl        6.18625624997254    0.61095098704991    8.97586292989253
Cl        8.30341680997444    1.84408844177273    5.02445153343654
O         8.98004845915505    0.73151325539271    7.77132673948580
O         6.88999039432704    3.89382552742128    7.57261458649422
N         7.65276844174376    2.93031592833972    7.70633007398446
N         5.43335261514748    1.83027220698636    6.21597253654488
N         6.85366995139644   -0.71837039992651    6.24431548884266
C         9.51753248330517    1.72526793165062    8.34202307403174
C        10.79133256603391    1.62937090584826    8.98338812822847
C        11.33637090056157    2.71946712510585    9.57080971247438
C        10.68677807677792    3.98979670188269    9.58303453149907
C        11.29131182908963    5.09223773701765   10.20195192854841
C        10.67229300393597    6.31939214000901   10.21822173896184
C         9.42763428128759    6.47240445971683    9.61261606600800
C         8.80917319090627    5.40706349078399    8.99653210528717
C         9.42053354452423    4.14780533408805    8.96679819463799
C         8.83677282802740    2.98857607769615    8.34143617406826
C         5.13904364645864    1.63768867257273    4.92806574552308
C         3.96104631974328    2.07836062258886    4.35963014099201
C         3.02273262701789    2.75148647554911    5.13630815716068
C         3.33917007811612    2.93347802552085    6.47772617491700
C         4.54013829074186    2.46686636488563    6.97546740549959
C         1.75181247463613    3.27170608258194    4.55300025307948
C         7.87693986018055   -1.36205213433239    5.68394097675762
C         7.80970485562383   -2.69234829102792    5.31655408449028
C         6.63857780455957   -3.41155298113140    5.53132674674082
C         5.57985653066528   -2.72686570104669    6.11976883161455
C         5.72694708725314   -1.39606066744020    6.46001617687950
C         6.51772030208023   -4.84351956183437    5.12800473598318
H        11.28612963678469    0.67067716584452    8.97583203449952
H        12.30096716707818    2.64646316139434   10.05392674430815
H        12.25737310657068    4.96126358285976   10.66834185009085
H        11.14716797921878    7.16253077247646   10.69760428776874
H         8.94109032044945    7.43645902674651    9.62491544069705
H         7.84663304373481    5.53918265655839    8.52972824081415
H         5.88259804413155    1.13461793549300    4.32417274808352
H         3.78078034178627    1.90230027432315    3.31039678486806
H         2.65583749848445    3.44269260876219    7.13909081144144
H         4.78559437283303    2.59827504884660    8.02003537031840
H         1.90741522466695    4.29028055391124    4.19672914682153
H         0.96228191416777    3.29471201966368    5.29995997423231
H         1.43329636934329    2.66546875591082    3.70860467017468
H         8.77703865164712   -0.78493963974290    5.51708630659938
H         8.66912880164896   -3.16603427429381    4.86779289191341
H         4.64537268350976   -3.22830356403840    6.31957719266510
H         4.91804421288597   -0.85934353344954    6.93873943879028
H         6.21314612791533   -4.90318119626450    4.08258711353661
H         5.76966826715190   -5.35556654568600    5.72779913870942
H         7.47159224785617   -5.35559688565265    5.22779631987893

