25
CSD_code = GUTJEL | q = 0 | S = 0 | Stoichiometry = C8H10Cl2NOReS2 | MND = 6
Re        5.58092248069708    1.91731637898699    2.16168515934613
Cl        4.52917890326667    3.94661776537253    2.40006332520962
Cl        4.06970665145696    1.08520949299628    3.63165299898321
S         7.14352378558519    0.19849670845361    2.75893783779955
S         7.53606432033769    3.08978356420357    0.99337256849530
O         5.13456572487792    1.21654779633040    0.72925150435729
N         6.78467661262277    2.92985425425224    3.90428158628594
C         6.62297150971354    2.52294198495106    5.16081247541809
H         5.92338533960179    1.71066798656146    5.30904175159143
C         7.30468157919682    3.09320757121000    6.22015517225024
H         7.13554743500356    2.73370135691653    7.22152576909140
C         8.20221434055832    4.11757683840514    5.96309379242924
H         8.76021551514022    4.58108898480201    6.76207557836801
C         8.37222121752329    4.53720627593261    4.65483830474295
H         9.05690688617934    5.33408229631921    4.40988252676451
C         7.63352716773598    3.92813543334354    3.64810585127080
C         7.73652046870917    4.41224732966633    2.23577980343830
H         8.67463257186581    4.93295515891114    2.04686480481550
H         6.89080858292213    5.07847799662235    2.03036141091510
C         8.89590187088171    1.93407882834752    1.46252474810825
H         9.68325484572339    2.07250088032590    0.72086491127619
H         9.25778692586261    2.21907833389334    2.44973074988698
C         8.39730801755466    0.50319166468086    1.46256922489482
H         9.21780244321631   -0.18090581273064    1.68105811518287
H         7.95357480376701    0.24504093124608    0.50007002907824

