53
CSD_code = GUVNIV | q = 0 | S = 0 | Stoichiometry = C27H21AuClN2P | MND = 2
C        -0.29330303979159   12.30247540595044    2.14066725210997
C        -1.33165796398011   12.99428092621771    2.78944646007750
C        -2.24264216406551   13.40715880892100    1.79104038594848
H        -3.15410905533780   13.96563878043955    1.87963459443470
C         0.01899319893737   11.78030263723451   -0.25932597914322
C         1.31504024697253   11.28939273379453   -0.14606014660964
H         1.82452305156121   11.33046390876023    0.80453835974641
C         1.94137145812886   10.75092464560750   -1.25479079036404
H         2.94733425588181   10.37035726400229   -1.16118885343594
C         1.29048986688821   10.70171146153279   -2.47632673834842
H         1.78682517205270   10.28114054430237   -3.33794119617250
C         0.00145496033340   11.19640169477758   -2.58782871617851
H        -0.51172439318659   11.16207640878576   -3.53736593160538
C        -0.63631292880418   11.73376264230909   -1.48643383591588
H        -1.63892275826494   12.12465999360532   -1.55484351089972
C        -1.34115308928372   11.74126335762721    5.56608532519545
C        -1.55523871756537   10.48264927053533    5.01917500697225
H        -1.57851087917838   10.36126956439864    3.94400497090385
C        -1.71719842329027    9.39676808883955    5.85820696699369
H        -1.87282120093319    8.41390763994113    5.43957394002588
C        -1.66382115814337    9.56763099167202    7.23297248912903
H        -1.76782522726606    8.71294892871478    7.88426996264880
C        -1.48130132034889   10.82912784876127    7.77554948063530
H        -1.45077218510643   10.95972802252920    8.84701330124905
C        -1.33351965676577   11.92453804336051    6.94465853896684
H        -1.20958942804760   12.91879199994276    7.35471952912377
C        -2.61290931696174   14.15799646512711    5.02079763200442
C        -3.84098721578785   13.57759912086433    4.71054242012787
H        -3.85919346119255   12.62079884469444    4.20294953300266
C        -5.01579353253553   14.21944763006632    5.04981110428675
H        -5.96727956237965   13.77155105771562    4.80439405042626
C        -4.96934126080462   15.43944884752340    5.70769151582713
H        -5.88688838695321   15.94291288579804    5.97300324132209
C        -3.74995430825336   16.01160880348889    6.02868380372871
H        -3.71661276835440   16.95889170892959    6.54627721186759
C        -2.56852648525094   15.37406806022848    5.68920040254988
H        -1.61681118149089   15.82161387489755    5.94058542831736
C         0.25670068139613   14.24054078599739    4.98329361465356
C         1.16453643503016   13.91109937103248    5.98253810980942
H         1.07932157868759   12.97620572405246    6.51604869025354
C         2.21405468458924   14.77261280732227    6.24611909161620
H         2.92966597215455   14.51651551618941    7.01220506947603
C         2.35858006987046   15.94531148967752    5.52122643763213
H         3.18625673520457   16.60712931152020    5.72844630139278
C         1.45211619087642   16.26872525244828    4.52309980474469
H         1.57024779001633   17.17921075427946    3.95436200166610
C         0.39716575508194   15.41827899816459    4.25175319877024
H        -0.31874955799356   15.64867623059372    3.47143678726785
Au        1.03164212247915   11.63118734373978    3.45565608700794
Cl        2.31141289754763   10.94091140183514    5.19158514757684
N        -0.64901345232957   12.33321433050258    0.84212812707434
N        -1.81421601266899   12.99075173256778    0.63077827957243
P        -1.14483303138681   13.20202003816686    4.52313604253047

