57
CSD_code = GUZMIZ | q = 0 | S = 0 | Stoichiometry = C24H27Cl2HfN2P | MND = 5
Hf        6.61445850880718   10.72205847983497    4.03584080676429
Cl        8.65422544625101    9.61413219620028    4.03182464065333
Cl        7.36557493820025   12.30058543198888    5.61522899204009
P         4.25981568449294   11.99591538515661    4.40389418995414
N         5.50216025381377    9.52145422114264    5.23407742266079
N         5.96770435065036   11.08287969605506    2.12535162002830
C         3.47078201436355   11.80272649797947    6.06892895925105
H         3.98384426632079   12.50979313405558    6.72887524336629
H         2.41692294775558   12.09423547903433    6.00616657419127
C         3.60740744713277   10.38442471097441    6.61932920379079
H         3.26315590251300   10.37331983621604    7.65625544050645
H         2.97396368430424    9.70328508114373    6.04767533443676
C         5.06197694494864    9.87630242133183    6.57307103452879
H         5.72187401276626   10.67119283628675    6.94512753816706
H         5.16810283677774    9.01521674894337    7.24644543029677
C         3.12308701253779   10.98505579348240    3.34700990186388
H         3.26006787562105    9.93155456921395    3.61241802354288
H         2.08364712628203   11.26094964595205    3.55089260786973
C         3.44343771774382   11.19393176576163    1.86954754645206
H         3.44501050157090   12.26586971402110    1.65829020845219
H         2.66281444544229   10.73107678167536    1.25981217676134
C         4.78880779230702   10.56761551129114    1.45104079676989
H         4.73318853538814    9.49088111211271    1.65481163525899
H         4.90287344875153   10.68851209561494    0.36458075142439
C         3.79208059328978   13.71233838915488    3.98254496309274
C         4.84501004907980   14.61642073688872    3.86850635792250
H         5.85483649194368   14.27571826123550    4.06120104238526
C         4.60099873781035   15.93159143203060    3.51771474524401
H         5.42327075436778   16.62458863299657    3.42601507065573
C         3.30330269249176   16.35241716375537    3.27910771536397
H         3.10884594910545   17.37687844282971    2.99877142898105
C         2.25037772864472   15.45980914435684    3.40263083130748
H         1.23801201606690   15.79116882216150    3.22251047008552
C         2.48987948034164   14.14340168665427    3.75258449360807
H         1.66058264967213   13.45649604997953    3.84428103279645
C         5.16207407635200    8.30241448475765    4.70627264533352
C         4.31424701317569    7.35787708840509    5.31219682216589
H         3.89228995260965    7.54938496135632    6.28638410351523
C         4.01723612847193    6.16525019192295    4.68164101201934
H         3.36405680544001    5.46044899119614    5.17578058032960
C         4.53855999752160    5.86331476051471    3.43544864916572
H         4.29709159781255    4.93079932932073    2.95044199185045
C         5.39022855616263    6.77346432412574    2.82659738195324
H         5.82338491237195    6.54587613816753    1.86327288000566
C         5.69868549612511    7.96847837525792    3.44349557436822
H         6.40152431369973    8.66406140251284    2.97416877086414
C         6.44994577536203   12.31807952263711    1.75295008265050
C         7.65767156936911   12.73955324474774    2.35789687488273
H         8.21264371043199   12.02610233129311    2.97881822593096
C         8.19206667737298   13.98631397501481    2.10211859595267
H         9.11426743282616   14.27714683442473    2.58327417854264
C         7.55939245297861   14.85707866136379    1.22661632203501
H         7.97220687818455   15.83467633689346    1.03364901695798
C         6.41120795261252   14.43753200158819    0.57781490537478
H         5.92767808442640   15.08973822546573   -0.13534119530912
C         5.86247518665929   13.19363596294287    0.82333401287079
H         4.97876459247619   12.90307494859771    0.27800433807056

