38
CSD_code = HAFXIY | q = 0 | S = 0 | Stoichiometry = C13H18Cl2N4Pt | MND = 4
Pt        5.57138205184189    4.28063125957359   15.97377680348073
Cl        5.21092403636951    5.51331110650786   17.79097146237820
Cl        6.25704945338110    6.09003785793210   14.87381534960925
C         6.47841407546579    2.41299065883518   12.18719097035993
H         6.83926383040067    2.72303109925734   11.22023180573770
N         4.56040024329472    2.25393479895953   17.97684016067892
N         4.36130793381779    0.94918062370312   17.96321680414152
N         4.99857584816775    2.60091212462538   16.82134870201381
C         3.93689132811154    0.26084289183809   19.15092817038969
H         3.27397800035935   -0.55852046272086   18.86242915107066
H         3.38729070255890    0.98387708269743   19.75638125486643
C         6.30541553664237    3.35043731452613   13.18803620791142
H         6.52193578432859    4.40118564701815   13.04031557271954
C         5.72250369566055    0.73212337214417   13.70242799231749
H         5.47999974584172   -0.28922172373669   13.94951534278727
C         5.57126228090029    1.72756934345527   14.66179424234682
C         4.68336889611776    0.42622614358629   16.76361554420245
H         4.59477229143356   -0.61555347558303   16.54035650418904
C         6.18316834895680    1.07911001738833   12.44538744087843
H         6.30978630551964    0.32723433071936   11.68226268869198
C         6.00381797268191    0.86019649344737   20.49553468322079
H         5.39876586364533    1.48316448298813   21.15626334077533
H         6.35532149971162    1.49915938698962   19.68337414052452
C         5.14007595475843   -0.26888151694037   19.93781843999535
H         5.74244819238278   -0.91122131103153   19.29027748044502
H         4.76490007283835   -0.88180042157027   20.75877352460340
N         5.86290234332118    3.02297767227274   14.40039435905346
C         7.20671241628219    0.32277947617815   21.26663924237755
H         6.85874339658303   -0.30148750510552   22.09334928260757
H         7.80947676129682   -0.30820348377949   20.60835914905397
C         5.09840058480478    1.50527635643845   16.00668914936094
C         8.07660406211188    1.45030128577708   21.81670638589259
H         7.47468160100736    2.08088259626660   22.47378914833525
H         8.42335101882159    2.07351501273473   20.99017832496472
C         9.27636571479573    0.91383131706950   22.58732321764156
H         8.95014587097515    0.30929740228919   23.43105938243186
H         9.88249234123808    1.73268602731071   22.96623419973175
H         9.89920394355673    0.29548671795906   21.94429437820725

