29
CSD_code = HAHWET | q = 0 | S = 0 | Stoichiometry = C13H9ClNO3ReS | MND = 6
Re        0.20812734120896   19.60058640512614    2.29485747640434
S        -1.20574894393373   19.77095306361776    4.41669275165428
Cl        1.88542974393027   18.83647342208133    3.77569284649629
N        -0.44935835576350   17.53489862981516    2.55344167619317
O        -2.23873331032341   20.35543219843603    0.56921863228706
O         1.32352799415523   22.45599701123105    2.63987291973087
O         2.03970385988399   19.03402806393998   -0.12861224228019
C        -1.31926051845263   20.08667755114588    1.19910610452086
C         0.89569617535831   21.41555301775734    2.43706911806930
C         1.34324984010221   19.26688183035172    0.75322291327667
C        -0.74845511603714   17.11264978324088    3.81005045330218
C        -1.04134347759141   18.04564106376720    4.83545720294859
C        -1.28301976115300   17.62827129060153    6.11902344185125
H        -1.51598557672540   18.35013906361609    6.88654305851030
C        -1.23572199636777   16.26914160720573    6.44844953619385
H        -1.40996509465164   15.96912420848283    7.47021768019138
C        -0.99593772438900   15.33612485463595    5.47920369485642
H        -0.98262837524783   14.28236751030823    5.71360247016648
C        -0.75919455056492   15.73051821385843    4.14722334228857
C        -0.51660598264170   14.79648171475319    3.12056898841874
H        -0.51282816052040   13.74253737470983    3.35579580553207
C        -0.28904309684166   15.24979549757671    1.85041157175233
H        -0.10843509026659   14.57281577739032    1.03114578758283
C        -0.25026024671284   16.62936320351075    1.61893151797320
H        -0.03433264601358   16.99851228782038    0.62417515781185
C        -0.14650539501742   20.56082714670481    5.66100853400880
H         0.84462434240380   20.11341770527957    5.60382552741049
H        -0.10452937273032   21.61292943027952    5.39262773998510
H        -0.58626650509932   20.44446107275629    6.64647629286092

