36
CSD_code = HAJVUL | q = 0 | S = 0 | Stoichiometry = C10H19AuClNO4 | MND = 2
C         2.10093838402153    4.95102905158183    5.15188832497654
C         1.82398715827552    2.43675873060116    5.46259067976036
H         1.83010266942706    1.96054726102649    4.47775715879312
H         0.88314171259775    2.22105795229913    5.97693636806291
C         3.01184777038466    1.91429719722942    6.27700407270826
H         3.08767298133767    2.45985962445449    7.23173595673120
H         2.85248207304187    0.84742446626748    6.49764321340894
C         5.34368779481332    1.63236328092081    6.13028662330051
H         5.23599564591847    0.57392324214181    6.40281969096208
H         5.54403831023995    2.21955485318112    7.03901747374539
C         6.50292496814479    1.77276642256276    5.15296015730530
H         6.41005606886769    2.73282696710066    4.62371084479180
H         7.45424735695807    1.76612766761067    5.70718392019549
C         7.46110742945690    0.77202644369208    3.25994162214687
H         8.45377589908807    0.85062574720688    3.72613518174117
H         7.29919798010484    1.65531029562531    2.62236256075042
C         7.41575575198365   -0.49398660022262    2.41255150284530
H         6.36712086586413   -0.79513883206301    2.27885303116165
H         7.85441658007630   -0.29282886854171    1.42165837129995
C         8.12441922453733   -2.73015599275744    2.36422568689483
H         8.63241170073423   -2.61360862527625    1.39323412728190
H         7.09104111911496   -3.05707263909572    2.18299207253557
C         8.83051091476267   -3.79131033312963    3.20092818074117
H         9.29466781529303   -4.54294658239965    2.54236820286065
H         9.62103070637803   -3.30632428410087    3.79118409383911
C         8.47433372750554   -5.33116439081297    4.93057414010044
H         7.66374676405198   -5.74919242103143    5.52370218304097
H         9.19973858021052   -4.84369212381883    5.59386215047353
H         8.98343486604637   -6.13828928782338    4.38737653169265
N         1.92858412106495    3.81294364011969    5.27956773338496
O         4.16810862631000    2.09885361766066    5.50625119265085
O         6.45969473142972    0.70116506938730    4.24591201433109
O         8.14242973187297   -1.50791566290950    3.06110784424821
O         7.89170473344580   -4.41074407710646    4.04632069075415
Cl        2.74787935102126    8.94770892281866    4.68256633878135
Au        2.38776588562380    6.78660026746192    4.93769006172652

