39
CSD_code = HAMLUD | q = 0 | S = 0 | Stoichiometry = C12H20Cl2N2O2Pd | MND = 4
C         4.06669348359797   -0.18729910015751    6.13137628732258
C         4.66135360180520   -0.42628859252500    7.42007110531637
C         2.55400958157507    0.66743803589385    4.74196323967684
H         1.63628469359514    0.12070861016239    4.49550207192613
C         3.77121510473696    0.10652591918967    3.95939504917408
H         3.49860285395312   -0.68479755120063    3.25900854233221
H         4.32831126275057    0.88187919751365    3.42788362499028
C         4.81598392991483   -0.23213756340327    9.63086567138927
H         5.38409500754453    0.58623137523424   10.08850305888789
C         5.75905283580452   -1.34685725084501    9.10490705656694
H         6.80882622201915   -1.16186953232113    9.33847764573530
H         5.48041584140078   -2.34147501796908    9.46157885318124
C         2.26858039478080    2.17738736648141    4.56441578869836
H         1.32679946121047    2.36619969044543    5.09245935992957
C         3.34569066526237    3.04989231800044    5.21401433374841
H         3.17127208826643    4.09090765279670    4.95473826751585
H         4.34627370188708    2.77684732930508    4.87929806164597
H         3.29760811216532    2.96943594925134    6.31764821063880
C         2.07886884553404    2.51869956605266    3.08949378184744
H         1.70927177923588    3.53601849232426    2.99694346953230
H         1.35340469924181    1.85101222508137    2.63188167834307
H         3.01185019474780    2.44761540049868    2.53478009004500
C         3.73164584727917   -0.67884599760158   10.63944006172393
H         3.24267869491959    0.24194518988422   10.97782714721921
C         2.66152677489214   -1.55754131235156    9.98635460744566
H         1.99899409902287   -1.94924566892776   10.75374366828685
H         3.09851063732246   -2.39934436118541    9.44950707006450
H         2.04368021345058   -0.96181816650103    9.28618966124265
C         4.36869819250704   -1.36513136170671   11.84410979857006
H         3.61756347490391   -1.51742886522274   12.61416107476209
H         5.16209605935412   -0.74956801095040   12.26053676440522
H         4.78512340020139   -2.33569682548083   11.58310380473072
N         2.91034020743554    0.37811836494956    6.11459302508884
N         4.20445487341867    0.25441047257506    8.41257107628170
O         4.63927907289082   -0.45115673530752    4.95445740512745
O         5.60467571632254   -1.33475942823785    7.67993089785034
Cl        2.23877895535628    2.27573092474930    9.84511543346583
Cl        0.39959922191536    1.81858095679439    7.38910146139022
Pd        2.44049019782265    1.17947630441902    7.93885179439957

