55
CSD_code = HAXXOT | q = 0 | S = 0 | Stoichiometry = C26H25BrNPPd | MND = 4
Pd        3.82422084963088    4.01615056104057    4.91237147814609
Br        1.80149341053656    3.99056919840910    6.28704136880088
P         2.91343324843899    5.26003668891851    3.31916291763800
N         4.85814999580176    2.83070900334011    6.38103364610413
H         4.37719984361500    2.83846390058292    7.28507677027275
H         4.98952581904329    1.85787397447829    6.09774881972433
C         6.14897959223411    3.53845851873994    6.44511429497618
H         6.88492605495408    2.98106243711340    7.04911072166838
C         5.90415615457996    4.90853308058009    7.08796987345469
H         6.79401049346376    5.52839645195797    7.00685492841391
H         5.64405946242114    4.80054190024813    8.14052737353453
H         5.06738996207322    5.41106013961020    6.56842317765920
C         5.64009839824290    3.90546706623256    4.04212231056853
C         6.62562048468223    3.68223538658504    5.01498142435169
C         7.96167022397395    3.56708731548660    4.66571442079428
H         8.70656539503464    3.39735728018996    5.43210829291188
C         8.33816414794644    3.66359275893947    3.33708843452130
H         9.37984182442890    3.57978421247740    3.06336801528581
C         7.37355567351554    3.84923382042905    2.36314546730248
H         7.66037989442801    3.90450919048764    1.32230054183691
C         6.03677767794979    3.96639284464750    2.71333082984257
H         5.30102912440267    4.10554238089706    1.92772695140816
C         1.47411071649051    6.32270785105177    3.65718511281919
C         1.59778850162248    7.69764321402070    3.82263931010959
H         2.56365601042256    8.17203467541500    3.71404489412899
C         0.48233967984977    8.45865410999190    4.12536364038483
H         0.58255161167388    9.52698963078624    4.25097135854987
C        -0.75451697985712    7.85443672219967    4.27377277979797
H        -1.62097467179139    8.45179192113154    4.51609779449008
C        -0.87909954991711    6.48274964832558    4.11991148469463
H        -1.83988787043636    6.00733667177007    4.24747694110768
C         0.22921975698609    5.71715692612925    3.81512920884601
H         0.13780634798478    4.64436720674172    3.71197103698970
C         2.26684090662648    4.15227486085659    2.03100333783362
C         2.56856307473122    2.79780950781178    2.14680127665546
H         3.17723659856067    2.45676466800374    2.99422640822825
C         2.09307219908797    1.89675547869349    1.21145842254139
H         2.32617098171001    0.84621494338395    1.30338724834030
C         1.31009727083154    2.34443181329761    0.15964293838386
H         0.93819711528325    1.64282008364995   -0.57224878704911
C         0.98738840774622    3.68839939245085    0.05341503818523
H         0.36087717624719    4.03046818345745   -0.75742274499003
C         1.45616410353904    4.59291717616006    0.98867019568253
H         1.17759477581249    5.63646449777431    0.92680135759623
C         4.06411832542068    6.42347496186856    2.51846944449327
C         4.10067694369107    6.70136752988300    1.15971640657079
H         3.42062920496101    6.20399263073458    0.48354071099747
C         5.03008682834901    7.60238073675678    0.66790856230674
H         5.06284229737821    7.81208513414207   -0.39135360864597
C         5.91822015455375    8.22996186711729    1.52476416013539
H         6.64165381242256    8.92980608421575    1.13353988233186
C         5.88635832046757    7.95369335662313    2.88287834647676
H         6.58347799388327    8.43701527806799    3.55132406674173
C         4.96602296307019    7.04960396226065    3.37492388870748
H         4.93876926120176    6.80367116381238    4.43436782733153

