35
CSD_code = HAYJUO | q = 0 | S = 0 | Stoichiometry = C18H12Br2N2Pd | MND = 4
Pd        2.18915420720783    2.63413502057246    1.22889268438962
Br        3.51320023859106    3.94696064017676    2.68869057238207
Br        4.06270755344147    2.38568573842431   -0.19804242816165
N         0.41989070116913    3.06715586866764    2.15406232582213
N         0.82825460519066    1.90262848376305   -0.11867136360702
C         0.18849156193581    3.41142445536360    3.43924852798844
C         1.01939684454293    2.89943974465017    4.45598187930315
H         1.80049567098637    2.19772607703448    4.18490727923710
C         0.81839158827335    3.27549950861122    5.75649993049156
H         1.45990690727559    2.88920654148602    6.53274288268502
C        -0.21738320811930    4.15986025501088    6.09160958537635
H        -0.34889967205193    4.45432839195884    7.12164848875892
C        -1.07167225234726    4.62958869520904    5.12970566751796
H        -1.89137528940457    5.28418526482949    5.38652611570402
C        -0.90192533964633    4.25713975678153    3.78427551955858
C        -1.76351541490747    4.66893442019831    2.74499270574324
H        -2.58434732864169    5.33325286625255    2.97088747986929
C        -1.57014208743604    4.20363410103542    1.47415402675237
H        -2.24883860541362    4.47668026291443    0.68283245635753
C        -0.45527593746949    3.38607459220443    1.19416332572633
C        -0.21306082232654    2.74283622096046   -0.09668732605954
C        -1.04347335329683    2.89560254049849   -1.22660285936729
H        -1.85185140048114    3.60800352649802   -1.20683099829320
C        -0.78999808800518    2.16525291593716   -2.35412114701433
H        -1.38242936918510    2.30312125636698   -3.24641457788280
C         0.23785976037153    1.19806815975901   -2.34989321869773
C         0.51423870316531    0.35080361742495   -3.43778860884280
H        -0.07483497516469    0.45376494561765   -4.33702754589050
C         1.50408168381109   -0.59143675938842   -3.34789845556990
H         1.71473857232472   -1.23561250894536   -4.18790685593504
C         2.23601853637940   -0.74739090493501   -2.16156703189199
H         2.98834896795030   -1.51766651854473   -2.09834361276914
C         2.00231356797436    0.06736915279804   -1.08685559086361
H         2.54373816803996   -0.05595146085253   -0.15582092133738
C         1.02509530526637    1.07939513166071   -1.17094891147988

