59
CSD_code = HAYRII | q = 0 | S = 0 | Stoichiometry = C20H34Br2P2Pt | MND = 4
Pt        4.19059017517699    1.19786844365872    0.96634204161335
Br        2.04035798106203    0.33468543211262    1.64872011245613
Br        5.36002640270058    0.01737104684933    2.72099636298452
P         6.12959696044072    2.07672212145042    0.17814385236324
P         3.12790602598868    2.70410130425760   -0.37890830274914
C         5.75477123950850    3.50406419596454   -0.95429708784565
C         6.88485457819120    4.47864779576566   -0.72509857629974
C         7.55852616928570    4.24661516515913    0.55478913984245
C         7.27597797104924    3.06768424992387    1.13656452174782
C         7.23172326414197    5.40941428646585   -1.61064217851366
C         8.49364647715514    5.25986046171954    1.12320661793574
C         4.35943263391886    4.08067384969441   -0.65028122799387
C         4.24646454757578    4.94353807582948    0.62711192006327
C         2.86074072592678    4.74978664881583    1.20491215093414
C         2.16194150375910    3.71513873661024    0.73310280512539
C         2.36960180157013    5.67340422579785    2.26663681841610
C         4.53280071239790    6.42005085824124    0.35298010342464
C         7.22614428869090    0.88722383783491   -0.78172858120134
C         8.13061795827099    1.60864603339927   -1.77705212334268
C         8.08255620817681    0.13883126104759    0.23964830868547
C         6.28323849409592   -0.08063904892578   -1.49438598445041
C         2.11378447182610    2.47842887514485   -1.94073238281548
C         1.37620250452606    3.76853888092226   -2.28385963254586
C         1.11939879810022    1.35695516865434   -1.64860614267209
C         3.05340923839306    2.06477780971795   -3.07024085803187
H         5.74500618829088    3.16260271230950   -1.99503247065999
H         7.67249080404821    2.73466066545756    2.08269655598822
H         6.71618300736369    5.51187920462782   -2.55075260928133
H         8.04386252118498    6.09370883381482   -1.43759250831605
H         8.82665150431902    4.96007391451937    2.11317954581367
H         9.36722337726236    5.36860466623399    0.48111582387627
H         8.00485587685938    6.23082423685664    1.19115765637482
H         4.03610197933681    4.69447457510835   -1.50016645255369
H         4.96728263887173    4.57204156685409    1.36952775078947
H         1.19582416685181    3.40816715418256    1.10281627837979
H         1.44476187243639    5.29882310355904    2.69707387093821
H         3.11305014590558    5.76494208973259    3.05723098436267
H         2.18600933595154    6.66736641564724    1.86018610982325
H         5.49228354621741    6.54204667965082   -0.14122483463716
H         3.75924017239296    6.83719100633865   -0.28990071375381
H         4.55349317362317    6.98414136243833    1.28160670954766
H         8.83052095164044    0.89305645324532   -2.20601347346872
H         7.56745541209195    2.05350388928765   -2.59481497875938
H         8.70674983396344    2.39112188471133   -1.28539870012720
H         8.63176836084705   -0.66166322281877   -0.25320601958373
H         8.80144431261100    0.81082129518674    0.70524946514658
H         7.46729359909401   -0.30384338113699    1.02061089611706
H         6.84193388619642   -0.89477988743442   -1.95214902121416
H         5.57492574766426   -0.51430272808909   -0.77866787796850
H         5.72113661882277    0.43083907156868   -2.27552523493843
H         0.76601077414284    3.61201854870899   -3.17213958110836
H         0.72143658561356    4.06816300708316   -1.46817302327680
H         2.06611902645182    4.58491435805720   -2.49055696379998
H         0.49095270113557    1.17223388948291   -2.51825911870927
H         1.64243545801822    0.43427922963143   -1.40020001021332
H         0.47828126670040    1.61372527706463   -0.80702082193421
H         2.48105003029826    1.82710901722827   -3.96552904171310
H         3.75165267959164    2.86412861264604   -3.31676595478697
H         3.61700131228704    1.17753678214030   -2.78248391347771

