62
CSD_code = HAZDIX | q = 0 | S = 0 | Stoichiometry = C25H31AuClN3S | MND = 2
Au        5.17814254186765    4.33190458442701    4.79766585480070
S         6.17900558834258    5.83258293750482    3.34151877470028
Cl        4.29558977985937    2.76133302047118    6.16506889588185
N         7.71899136771983    3.71928868170310    2.52071669979311
N         8.71376131950020    5.66452036377030    2.48771759547942
C         6.78061280052078    2.67952178071043    2.77059296016152
C         9.58205628329936    4.74188745269411    1.95215081978137
H        10.56337262725116    5.00751466843980    1.61985560585821
C         7.56724256071667    5.02599812414697    2.82698017704397
N         8.99028375962736    7.47458139573067    3.97950078756533
C         6.99697849254297    1.82905560637851    3.85925292052776
C         8.69542604521127    6.76453765696256    5.13577870377379
C         7.23525538822674    6.54439014030852    7.02881015898105
H         6.38506930576323    6.88881845956603    7.59843211604951
C         4.91710900801129    0.71128861760282    3.33130739912206
C         9.00513617164828    7.04073303499087    2.80810979722208
C        10.83264452859545    8.06254487995547    1.46665306388075
H        11.27146836450382    7.11097051960328    1.17527065017157
H        11.29477782278649    8.39146030861753    2.39418001862652
H        11.05986793614802    8.78911283107444    0.69042093764354
C         6.05573681660728    0.84825456170992    4.11536722964402
H         6.18585052595812    0.20530780431287    4.97188720172570
C         9.31132272568371    7.95677654824305    1.64264348707680
C         8.74954760607762    9.34279376504811    1.97599380527629
H         8.95967924196586   10.03498963928421    1.16472851376824
H         9.19974518074384    9.71955341588989    2.88879390506567
H         7.67415418419031    9.28637386056141    2.12010454617079
C         5.67301051550016    2.53900500543849    1.93517238983744
C         8.96874293245559    3.53936933205593    1.98414134989090
H         9.30458552910289    2.57513743151133    1.66245591027088
C         4.75086630529553    1.54857662366183    2.23804968937585
H         3.87304157110831    1.44620308087985    1.61688239577275
C         8.65654907564703    7.44022478498710    0.35930414995956
H         7.59264130312270    7.27597597663151    0.51734015335960
H         9.10648543953094    6.51032151380663    0.01807417369914
H         8.77389388361788    8.17907001735052   -0.42955067707689
C         5.48087677706609    3.44991337437155    0.76139177473624
H         5.23065191230081    4.45543627842250    1.10141098067768
H         4.67131712265278    3.09227911638656    0.13157939723554
H         6.38935949947351    3.51488237340977    0.16228414353399
C         3.87386634620224   -0.28769111752386    3.70873815178541
H         3.14486631322420   -0.42205840006579    2.91429141566221
H         3.35970031029604    0.07674825706988    4.59781234247070
H         4.32238892439387   -1.24819287993928    3.95264812893805
C         8.18797120442710    2.01093127713387    4.75033850435558
H         9.11362168370514    1.76715601821349    4.22702323606412
H         8.10219062952708    1.36589764398746    5.61961554532726
H         8.25141655800590    3.04216836705534    5.09930043286256
C         7.62153743534701    7.24778742393352    5.90113526638857
C         7.92627952189620    5.41555252595436    7.43486270329521
H         7.60565785287089    4.86729125908905    8.30690092033749
C         9.45027437959921    5.67430580502253    5.58082764905023
C         9.04635233436036    5.01275771412007    6.73402106677248
H         9.62639830463608    4.16840007572713    7.07927567507548
C         6.88963039888067    8.47723950595400    5.46475216852138
H         7.59641873775503    9.23368399933673    5.13021231657612
H         6.28865803900671    8.87201170761219    6.27959524572057
H         6.22894222778775    8.24728538990196    4.62924029823636
C        10.71980402694494    5.24445688537800    4.90003980937193
H        11.50423334377596    5.11685497775480    5.64466492791363
H        11.05453851106420    5.98480903316863    4.17674144791871
H        10.59110307606702    4.28791496245705    4.39182429030949

