38
CSD_code = HEFGEG | q = 0 | S = 0 | Stoichiometry = C11H20Cl2N4Ni | MND = 5
Ni        3.58941313114837    2.56239952385643    6.65255743571746
Cl        1.77584101827497    2.25354759990455    7.45096089029465
Cl        2.98360132285900    1.97524575541252    4.67221329207758
N         3.62694713945131    4.93256591958559    6.40867938802159
C         4.46393663083148    4.94344019846100    5.19879012663793
C         5.70851459758632    4.06886762653178    5.36882672900280
N         5.33053528516652    2.84870859035756    6.03303050628349
C         6.17689033398472    1.89593091057120    6.19478487609151
C         5.72946770412134    0.77377980600070    6.95444740331338
N         4.56748651836730    0.83880072762382    7.60639911871721
C         4.39426041569634   -0.35299925705320    8.20725612921143
C         5.46921835373541   -1.15889269397162    7.92675343252757
N         6.31417172770491   -0.43898819514505    7.14079096629105
C         7.54861575833533   -0.89102347029682    6.56448182557505
H         7.74440262866958   -1.91075352819667    6.88926712950894
H         8.37567399245631   -0.25288319845480    6.88285962954518
H         7.48859185677160   -0.87255676091701    5.47432119184486
H         5.69092288454069   -2.16263586672114    8.22664788171902
H         3.52474490865860   -0.56347519867243    8.79687630003307
H         7.18834634698772    1.92985552923181    5.79070195869779
H         6.46901480506303    4.58262206770738    5.97179963529479
H         6.14763450807760    3.85726129238925    4.38630686683422
H         4.75566951252309    5.96253447658111    4.90871173327928
H         3.86354667934572    4.51234190051740    4.39270051029172
C         4.26766165028763    5.59308661257028    7.55326848620658
C         4.57714155603372    7.08483219264363    7.39596785370068
H         5.00288435703050    7.45386666032516    8.32607327846661
H         3.67781656222879    7.65665378427656    7.18588257201960
H         5.29859025620863    7.26633045720445    6.60243784390694
H         3.61102054485045    5.45244018191932    8.41306258374091
H         5.19785201463144    5.06286283074720    7.77396978639777
C         2.32125078754014    5.52396179565406    6.05925960888390
C         1.36030737209194    5.67765943577504    7.22920023682897
H         0.38096949272236    5.94404902362184    6.83968742855657
H         1.67122847002017    6.45654122894007    7.92135662232885
H         1.26902727878257    4.73335667847375    7.75875628971985
H         2.47200952351596    6.50053966937373    5.57228320456374
H         1.86399207370968    4.84822569308379    5.33062924786819

