31
CSD_code = HEHGIN | q = 0 | S = 0 | Stoichiometry = C11H12AuClN6 | MND = 2
Au        5.31550533961608    3.42111170257753    4.90791938425339
Cl        5.00451655039425    4.16735116535928    6.99502584176931
C         5.54634883123289    2.75880275349530    3.03435608909230
N         6.63987925463299    2.20831165720214    2.47874205139827
C         7.91352692337200    2.05175540584741    3.13809743656856
N         8.91950751409207    2.81929791649646    2.46768686194764
N         8.85570860494695    4.15092478079133    2.47090860644687
C         9.86569478869026    4.56468507225262    1.73909643674909
C        10.60631160417990    3.47957947256807    1.24103561911842
C         9.96091181035212    2.37109931331002    1.72682004175438
C         6.40795552303551    1.90307693936814    1.15999318097026
C         5.13258999630578    2.26235407567548    0.89488916176234
N         4.61945524747895    2.77266791851809    2.05948692882339
C         3.30411388084329    3.35901116791227    2.17098338539896
N         3.28256533102547    4.65489557105899    1.56458504486222
N         3.07658283867951    4.77097359887931    0.24958314908490
C         3.21010390954180    6.05063359212418   -0.02313519518066
C         3.52200028383958    6.78386623213311    1.13380108868095
C         3.56907575318663    5.84828301072758    2.13551939499166
H         7.78543333452504    2.41356431952499    4.16633068098694
H         8.21360123941984    0.99776964143411    3.14076696917615
H        10.03295347212040    5.61233522293219    1.59225463491211
H        11.47912814682754    3.51225734697245    0.62328825382366
H        10.16687911286144    1.32535812467219    1.61750391486205
H         7.15687324362514    1.46793398167094    0.53158110262401
H         4.55598344625503    2.21845078733958   -0.00551065647171
H         3.05638498144136    3.43926736166576    3.23441037751614
H         2.58253065076030    2.72304210782248    1.64693002272059
H         3.07832462756958    6.40651162354274   -1.02530804029187
H         3.68414460203718    7.83838294654354    1.21426569635435
H         3.77300915706397    5.93324518962248    3.18369253528836

