27
CSD_code = HEHTAP | q = 0 | S = 0 | Stoichiometry = C6H14Cl4N2Pt | MND = 6
Pt        6.03258199874194    4.33401039906704    2.75168346604327
Cl        5.65097463848883    2.35754264766286    1.63806602018247
Cl        7.84424839811815    3.50244580072202    3.89831798193871
Cl        4.65956821877408    3.58424055247474    4.53373318381186
Cl        7.46345978755064    4.96260535916994    0.96930311955208
N         6.37555221250474    6.14513318071871    3.88487752755876
C         5.76262032466667    7.44960530911443    3.56949658891415
C         4.32030384604762    7.51438425728565    4.06758757148903
C         3.39407095819541    6.51576677342758    3.36948331799335
C         3.68689603021848    6.37310291317243    1.86814557920773
C         4.49811229522623    7.55855923186747    1.34890251091037
C         5.84095963438672    7.73437301774857    2.06207337712832
N         4.37316467694423    5.09666033398874    1.59160587234750
H         7.39386138814375    6.21912546072547    3.83912049101352
H         6.12685437804218    5.86056921671292    4.83605476052569
H         6.33533110011100    8.21956359780693    4.10652915093211
H         4.29097276559044    7.33047687528683    5.14240757863218
H         3.96463899550642    8.53233071833707    3.90032983876685
H         2.36526324125621    6.84489077104012    3.51425480836994
H         3.49390946376507    5.53778695051294    3.84170213244007
H         2.73348279893259    6.35780831840410    1.32025234192481
H         4.67977050189051    7.44241056138892    0.27961811450346
H         3.88641092345803    8.45241841013175    1.48128997313499
H         6.57843036080488    7.06633513582674    1.61579307609023
H         6.18388175514452    8.75574502177158    1.89797681041588
H         3.70879806419831    4.32337368697869    1.66346375098034
H         4.74748124329252    5.09763549865583    0.63913105519207

