59
CSD_code = HEQCIS | q = 0 | S = 0 | Stoichiometry = C30H23BrCuN2OP | MND = 4
Cu        3.77265221818178   10.07948088027013    7.37028607634440
Br        3.95094015683116   11.17375681831438    5.42030455483073
P         2.56384975297148    8.17145272816136    7.38668004854841
N         3.03572269303435   11.18410065116070    8.95949273224002
N         5.03458719122237    9.39986222531724    8.77565035473319
O         5.14977293831491    9.10503145109646   10.99561958246250
C         4.26570164279426    4.78551835290535    4.80360085182720
H         4.67310852083771    3.99728633486195    4.18777609711281
C         2.47314972186867    7.52655755300415    9.07565338736646
C         0.83945680120668    8.20713840875882    6.80721113263026
C         3.22136754268920    6.79684280873609    6.39197161807244
C         3.36276579807292    6.22733675592379   10.89207025366755
H         4.02116551142788    5.44683119720442   11.24528587129697
C         4.61398962295722    9.79133156911005    9.95757011103631
C         0.59442095882385    8.99154573550246    5.68230304472952
H         1.40334761303725    9.55430299910523    5.23394487790693
C         4.74004650099872    6.07995700650487    4.67493124968110
H         5.51243159152498    6.30712561968773    3.95544557642923
C         5.89078461585649    8.35706688292324    9.01426389565550
C         2.73123605824492    5.49908876925629    6.50597413968381
H         1.94035950937639    5.28078428393824    7.21082172616307
C         6.60921264387251    7.53560910855925    8.15670941715864
H         6.55337573877817    7.66799599811105    7.08866543834130
C         3.26043781257871    4.49748174393973    5.71489109890874
H         2.88521441010788    3.48820807111941    5.80438758838864
C         4.21870247323675    7.08728204688436    5.46766368656018
H         4.57209563699400    8.10561920706982    5.36700685628954
C         3.32439023442438    6.52817751851246    9.54245297147595
H         3.95776809104245    5.99122288291237    8.84882145570729
C         1.69694250856523    8.24433257136023    9.98785716431295
H         1.05645132498430    9.03970387602907    9.62462905885113
C         5.95982960043887    8.18255255236664   10.41125312828769
C        -0.67931663082626    9.05103578938386    5.14835642518365
H        -0.86688319705202    9.65919604746203    4.27646532052203
C        -1.70978340301861    8.33496642066423    5.73625632484326
H        -2.70605393232614    8.38202714866833    5.32182427039336
C         7.38026498203142    6.54849768681883    8.73704262376631
H         7.95014360665667    5.88486493201556    8.10471362333821
C         2.57742250047719    6.93274587122129   11.78906321104987
H         2.61999615700610    6.70142717004514   12.84291638746039
C         3.62727840416288   10.81317266111380   10.11239197703273
C        -0.19494636550088    7.48917281180869    7.39713403156532
H        -0.00891525040280    6.88457550605448    8.27470375211161
C        -1.46675910742130    7.55866541057594    6.85832132360157
H        -2.27195289191378    7.00144753761164    7.31550159387372
C         3.28047204200061   11.38062004810150   11.34214612087117
H         3.78061510169907   11.04781847963564   12.23761036008965
C         2.11406864352776   12.13360670662070    8.98966732837925
H         1.68470878917315   12.40151266051009    8.03343867677290
C         1.74342254726043    7.94294311018932   11.33440213271385
H         1.13790484248444    8.50260132074986   12.03288152337826
C         6.73740598718721    7.19779545214623   10.98832031653318
H         6.78098979430230    7.07209726090796   12.05780205131032
C         2.30638375349385   12.35504380562777   11.36244090682980
H         2.01040472248889   12.81449653351898   12.29357959790323
C         1.71200016096746   12.74594706122477   10.16257053965881
H         0.95030871050554   13.50830359343495   10.14380761024058
C         7.44428204815275    6.38365527535163   10.12059918285991
H         8.06266054960114    5.59777908995235   10.52674774102236

