44
CSD_code = HEXHUP | q = 0 | S = 0 | Stoichiometry = C17H19ClN2O4Pd | MND = 4
Pd        4.25556847277030    8.09681601151587   19.05468107728912
Cl        4.80159985038577    7.52559789180029   16.97601718250345
N         3.29719598937771    8.37212024921820   20.81619198617693
N         3.69353133690442   10.05646363369152   18.37577748356038
C         4.94144451218448    6.50574047361311   20.07206773054239
C         4.26026091120117    6.33797792116472   21.29208216947336
C         4.55348472597272    5.25804321091273   22.13765265939750
H         4.01802765874290    5.14889804715244   23.06605650073293
C         5.51473781280339    4.34492998094776   21.77087093768803
C         6.27564444604725    4.53771940714548   20.58794868268176
C         6.00761908763633    5.65200279187615   19.77993968456915
C         3.30769188841568    7.36842175176128   21.63448466669193
C         2.45101240669069    7.30167412410917   22.85708821137670
H         3.06973228867429    7.41746175607464   23.74603546643105
H         1.94945349900212    6.33768701676106   22.90977568805722
H         1.71068681139610    8.09765735025521   22.84386244129535
O         2.36624071478122    9.39868748749428   21.05585603725521
C         1.78986608461800    9.86476339203149   19.84676755579563
H         0.91686546942075   10.44098249743594   20.16037778303443
H         1.47164457594578    9.00214280948565   19.23039327889955
C         2.74614810755681   10.71889391343399   19.04520204702995
C         2.66196882680623   12.10292080703172   19.02540666711366
H         1.88722961228371   12.60580478732654   19.58297557331927
C         3.58298168439197   12.81916641436677   18.27628169065983
H         3.53804056666595   13.89698455020957   18.23958355374798
C         4.55656551299271   12.12361492043630   17.57545216898354
H         5.28642780505581   12.64256705084705   16.97502726961506
C         4.58038753884033   10.74116882182514   17.65451040527381
H         5.30466728958241   10.14617421625527   17.10633238454707
C         5.17508340445380    2.98818640288748   23.69174395503370
H         5.33440348357896    3.78962540306165   24.42189371453237
H         5.59400587018604    2.06160187054104   24.08104002068521
H         4.09993939746286    2.85663289044527   23.52694502836725
O         5.85780065618784    3.23642404049682   22.49053321520043
C         7.93868124776910    3.51454003471014   19.17813398466408
H         7.28660727486183    3.59626399480707   18.30749306475192
H         8.42078816530175    2.53644871730291   19.19247524818983
H         8.70337971688159    4.29357177278734   19.12579357190488
O         7.20938403841320    3.58002817495055   20.38434192254502
C         7.48270412574513    7.15635109038275   18.72786344935735
H         6.79628537156037    7.98487611900608   19.00607736311848
H         7.86098539770996    7.32786736852623   17.72191867735080
H         8.31642859150198    7.12297537787269   19.44376898113562
O         6.81689777121303    5.91112345605030   18.68567881942498

