60
CSD_code = HEXXEP | q = 0 | S = 0 | Stoichiometry = C16H37ClN3O2Ta | MND = 5
Ta        0.45056668028087    2.36319232529969    3.91553129888878
O         0.91626029352682    1.70719224899337    5.67076156307096
O        -0.18465652396184    1.04236479973366    2.70431606216860
N         1.17238220156725    4.26665129827446    5.76366690550519
N        -1.84040690797436    1.22054883151169    4.75989445240795
N         1.98796191251965    2.86683918152596    3.12461425206293
Cl       -0.99546463041023    4.08609148357843    3.39633294022020
C         2.01209663703866    2.01328216690786    6.45606646805538
C         2.28889185542624    3.55565031422475    6.38042673294930
H         2.50893863364342    3.95226914319168    7.38281530771202
H         3.15672781739333    3.71002645252498    5.73962230255453
C         3.24311924066749    1.26494150603797    5.91807300294684
H         3.10566402833521    0.19387194290598    6.04670534605832
H         4.14893428374732    1.57423089778531    6.43361996643661
H         3.31449863323546    1.48185433245140    4.85394302164697
C         1.75798539251775    1.57779847383359    7.91324662635152
H         0.92161905347563    2.12206586535558    8.34510087854303
H         2.64312277511294    1.75491421960691    8.51904115647745
H         1.52419698257753    0.51570615124434    7.93585440326916
C         0.08799112071679    4.49060810906938    6.70818963359064
H         0.40091392727847    5.13330713321131    7.54493816286815
H        -0.24700361448221    3.53421252723955    7.10273476134338
H        -0.74486939818764    4.96516024053540    6.18931491178556
C         1.60047705482840    5.53418888476207    5.18848082929229
H         0.74538343494415    6.01210402778145    4.71243207774504
H         2.34929304033595    5.33719940376410    4.42507272167152
H         2.01358402514102    6.21199612020659    5.94879085281301
C        -1.45505028410537    0.62692287446723    2.35032474926210
C        -2.48269969812084    0.99455380558930    3.46929256800487
H        -2.96658866431775    1.93221806329234    3.18409139611748
H        -3.25652235686102    0.21334220907484    3.53683449647026
C        -1.46245094744186   -0.88684608176241    2.05904726180813
H        -0.70759200575704   -1.10465916377335    1.30710774029788
H        -2.43595424627169   -1.19295298105808    1.68296454830592
H        -1.22918318085187   -1.46402508891495    2.94921833799025
C        -1.86539579885865    1.36676886712821    1.05958842411068
H        -1.77181968672782    2.44055657758740    1.21377941420806
H        -2.89050167558968    1.12637485004214    0.78717683623581
H        -1.20108162059674    1.07773793948438    0.24861753976016
C        -2.70355267893931    2.00760757849646    5.62750095573707
H        -2.88069575236074    2.98383575390592    5.17609768281363
H        -2.20850662360455    2.15313867782265    6.58743134465490
H        -3.67095176563842    1.51545922911112    5.80682120043802
C        -1.48014966414797   -0.02977008264341    5.41037087926561
H        -2.35571246856445   -0.67730019064694    5.57198661706857
H        -1.01685878929891    0.19027931177425    6.37111751398509
H        -0.74577689862678   -0.55542259612321    4.80346358660984
C         2.98225040166022    2.98030780105470    2.12811573511660
C         4.27574959844228    3.62374818390644    2.66815601981592
H         4.08154796214994    4.64402336492120    2.98869616691740
H         5.03726818746873    3.64056367831455    1.89248165822100
H         4.64968525257755    3.05617267181010    3.51612985385605
C         2.42662899879932    3.84474286108917    0.97815645726244
H         1.52552228565245    3.37581204800047    0.59134712573708
H         3.15807388547516    3.94725921693290    0.18035533126631
H         2.16491254954109    4.82939158074405    1.35686032129160
C         3.29547372588802    1.56779082839224    1.59327520835668
H         3.80433022726818    0.98652373268924    2.35765254526579
H         3.91990044100961    1.61784590528233    0.70488382251407
H         2.35389334133588    1.07693049311014    1.35787002285454

