56
CSD_code = HEZWAN | q = 1 | S = 0 | Stoichiometry = C27H21ClN5ORu(1+) | MND = 6
Ru        8.23994778614088    3.82897181628313    8.77239912448805
C         8.30881304043131    3.69213118973649    5.80008452878953
H         9.37379864815020    3.79049532974829    5.97139178072369
C         7.78008103557653    3.71240084892171    4.52485083750646
H         8.42652899485115    3.81509079728432    3.66898361239471
C         6.40330357473357    3.62716539003446    4.38461885548976
H         5.93850617654866    3.67554234701024    3.41305480064778
C         5.62634721329194    3.48784706142717    5.52341745025849
H         4.55388950474934    3.45836375591730    5.44267301508982
C         6.23029138437598    3.41850519193733    6.77162390631247
C         5.35050410290576    3.30981685643255    8.04357340502716
C         5.49053956888545    4.67950083561982    8.71024368224163
C         4.41954894852731    5.49152949678927    9.03388261829343
H         3.41531930472434    5.14839212755418    8.85277443339464
C         4.68707191571058    6.73390349319439    9.59781109542582
H         3.87440130008993    7.37755490561002    9.89390951422765
C         5.99900817234042    7.15122523992061    9.74891448265294
H         6.21759117523418    8.13034847531145   10.14110262921294
C         7.02791193989951    6.28641316510038    9.38382400041996
C         8.45677505414921    6.59947109619855    9.32374544099288
C         9.00897588421952    7.78398880578150    9.80236658420606
H         8.38973403846346    8.49210345886121   10.32748879712508
C        10.35922933775471    8.02688184864587    9.62731855467479
H        10.80988411898872    8.92757709194765   10.01242020564889
C        11.11500857337952    7.08769681883267    8.94226889635434
H        12.16748857394324    7.23833258155704    8.76657508074768
C        10.49839997384947    5.92901989764737    8.50250541359965
H        11.07236389172474    5.18131748506275    7.97234761428326
C        11.00465655919758    2.39956311153357    8.63340932482644
H        11.31520324483763    3.13581676716375    7.90363970661102
C        11.93437134879482    1.53125848754394    9.17801637965986
H        12.96981957504438    1.59593319653772    8.88679299842809
C        11.50886762781257    0.59897055239990   10.11323725873354
H        12.20889295908092   -0.07357145075885   10.58262173156154
C        10.16166483485584    0.54014805237367   10.41893552787608
H         9.79258159351796   -0.18245921490808   11.12757587621480
C         9.28123702522149    1.43540303167461    9.81742602947711
C         7.82667751459512    1.37268503258557    9.96821033116237
C         7.08631138069153    0.45755953372669   10.71185728040451
H         7.57366416979152   -0.26068520465341   11.34935059976283
C         5.70523127502548    0.52488658681256   10.65340805778985
H         5.10289575097107   -0.12616981402341   11.26620390525517
C         5.08724999907669    1.42691965414030    9.79220133605814
H         4.01432527326666    1.48740606320925    9.74196284800043
C         5.88399656472066    2.27551175456747    9.04182481952087
C         3.62584868311159    1.86270449731512    7.15454537497198
H         4.49065837544586    1.24956119999591    6.90058124588063
H         3.04516169971065    2.06240813461429    6.25223384425239
H         2.98665110641859    1.31415402758618    7.84868534484237
N         7.56192351920722    3.56291801758921    6.89716762279789
N         6.74834644925661    5.05588112345676    8.92320340608170
N         9.21148631283076    5.66130906151333    8.69641711434427
N         9.71461935462261    2.38823974470473    8.95100802756597
N         7.20077300192258    2.28300090529885    9.20287553955032
O         3.99902938291147    3.11261294851511    7.72996093747219
Cl        8.64149218441990    4.10514679111782   11.08597717066678

