33
CSD_code = HIDMAL | q = 0 | S = 0 | Stoichiometry = C13H12Cl2HgN4O | MND = 5
Hg        7.29637951834904    3.23922231540624    5.64465957659043
Cl        5.19552305965675    3.89872794777119    6.35541121280657
Cl        8.69059693648970    1.45272973136029    5.57646912168471
O         6.46756737864102    4.04188782039756    3.30441641281188
C         5.88592799044770    5.09929591144655    3.40873965726034
C         4.63738156161848    5.45591930733805    2.65784163809316
H         4.51480644574230    4.77798785714144    1.81826906523903
H         4.65714117963050    6.48502716734134    2.30894242724800
H         3.79088130606699    5.32528601669698    3.33144724144350
N         6.34198422724990    6.10130970504940    4.23697834073855
H         5.75162654916970    6.91649555344596    4.40476214792783
N         7.34272529527901    5.82003285837134    5.07633920259419
C         7.75967095707621    6.61254886538106    5.99262098129370
C         8.78594157831078    6.06716391523708    6.89390504379527
N         8.89070532456614    4.73428680377841    6.94950774300301
C         9.61251898645714    6.89751344394860    7.64834535271810
H         9.51408766636843    7.96863123332619    7.58045660387844
C        10.55991810497999    6.32517150595863    8.47991844854837
H        11.20823625326541    6.94859350778231    9.07757539341961
C        10.66404308227237    4.94485461004894    8.52488898569266
H        11.38958145811752    4.45757291549432    9.15619475263910
C         9.80595331199261    4.19199306375637    7.73557426537352
H         9.85255540070567    3.11076677792063    7.72922014703838
C         7.26519538206320    7.98948605065218    6.21518678549522
C         7.06041095434078    8.87023124972942    5.15011002811257
H         7.32615933814643    8.58688036053953    4.14214656080197
N         7.03067957513385    8.34010005504438    7.47698255246297
C         6.56503863879581   10.13586242862760    5.42204797344314
H         6.40060968749748   10.84016664864623    4.61958867145542
C         6.28789430610739   10.47969802789005    6.73483042255506
H         5.89056006003062   11.44998017191610    6.98631979312067
C         6.55391558952505    9.54226774609072    7.72524829003875
H         6.37988289590885    9.76390842646275    8.76965516066514

