43
CSD_code = HIDZID | q = 0 | S = 0 | Stoichiometry = C15H21ClNO3PPd | MND = 4
Pd        0.53346077065926    1.88819672030844    7.07477291115611
Cl        2.14787626103317    1.40272350624852    5.59640350619887
P         0.37768880893003    3.86815374898742    6.06320640260415
O        -0.92215359257486    2.42185764166853    8.39386280135443
O         0.33106498682719   -1.57229884130298    9.46204162858062
O         1.72169126991352   -3.19356552741054    8.75493577808200
N         0.70650927313773    0.05966349937322    7.98978830058196
C        -1.34984357850952    1.75274710729218    9.40140378204536
C        -2.33039906539103    2.37071963602868   10.22526520491125
H        -2.64193910361948    3.36573112506684    9.94352995540218
C        -2.85771055607859    1.74896486233074   11.32113103890729
H        -3.59933897299783    2.25712562239993   11.92065458956269
C        -2.44640216397207    0.45923299493607   11.67635941872543
H        -2.86743143403201   -0.02473038316072   12.54341828194590
C        -1.50735026064516   -0.17758103243856   10.91378797660142
H        -1.17719154120368   -1.17214966736391   11.17134886065019
C        -0.93968181931803    0.43489947979546    9.77728728218024
C         0.03319126008225   -0.29883021002321    9.03793459929238
C         1.27043312800958   -2.09808137644211    8.63204792883051
C         1.56996909440126   -1.02891293448650    7.60059714324834
H         2.62502742189780   -0.73113852679191    7.61804337915479
H         1.34930450005447   -1.37397893695251    6.58354456586682
C        -0.91944041594210    5.00608640566230    6.70983759325279
H        -1.83628001446412    4.41749096937644    6.79297916000851
H        -0.61409536976503    5.25533898166044    7.72960153048565
C        -1.15813665782971    6.26885635003759    5.89265359031228
H        -1.83740713013098    6.92983947409181    6.42732115995694
H        -1.60850284136918    6.03574913377338    4.93122424440889
H        -0.23096191317823    6.81002341692852    5.71720509526491
C         0.03986371130067    3.67022254729325    4.26804921790838
H        -0.19473689972937    4.62413957726683    3.79228883093738
H         0.94910839303599    3.26235425265452    3.81982101459144
C        -1.10289792039206    2.66570338462523    4.12831404542120
H        -1.23948264664755    2.37009788143809    3.09051129004742
H        -2.03847796963058    3.08445949865583    4.49629564620400
H        -0.86907932665932    1.76476779576490    4.72050185484968
C         1.96409825412407    4.78576986320763    6.22899284425976
H         2.66673789629362    4.34857390783266    5.51554347195974
H         1.83977775606819    5.84717071974246    6.00327849947842
C         2.47209002987551    4.57566131154052    7.65529048311655
H         1.81202314637599    5.05416752330682    8.37818573762894
H         3.47297029593657    4.98395257688871    7.77751512767274
H         2.50585493579287    3.49532592023355    7.87852422669587

