47
CSD_code = HIGNIX | q = 0 | S = 0 | Stoichiometry = C22H17IN2O4Pd | MND = 4
I        -1.20315822835513    2.79113577776093   12.53987699855828
Pd       -0.15035122019904    2.70390689897833   10.22869621037270
O         3.24119724201153    4.55939193597459    9.22647768430289
O         2.30404378527683    3.41585333005089   10.91452775078021
O         3.45802149868579    6.89858624987714   10.81385816348253
O         2.71909869891347    8.33591547171669    9.25603412071875
N         0.22346797171284    0.58207915010431   10.17050560893021
N         0.69489169940748    2.54124173365529    8.33516126416260
C        -0.14887754022637    4.67671795218452   10.13279960241251
C         1.11644824576262    5.27128306448043   10.07553929318996
C         1.24318144478670    6.66218220957633    9.96412308440593
C         0.10399097129912    7.44939569966431    9.86606530232546
H         0.20664637544530    8.52056492358891    9.78872341427291
C        -1.14899999408323    6.85955709261175    9.89769616260997
H        -2.03357727942802    7.47545856326181    9.82586105305486
C        -1.27655195204660    5.48772278595964   10.05336720141800
H        -2.26468938503604    5.04339114951464   10.12563262198243
C         2.33944405769675    4.42739771544069   10.01789600956601
C         3.48569263694433    2.63081381741644   10.99616200066603
H         3.31620355085043    1.90300841981538   11.78742933727037
H         4.33480322922672    3.27295999998527   11.24019542300238
H         3.68541104308483    2.12956364431906   10.04330657649480
C         2.59127203865589    7.27707684013580   10.06728183798848
C         3.97232459014077    9.00140998290246    9.30642095614153
H         4.13461259264623    9.42934283062188   10.29810562568334
H         3.93219348936747    9.78439848941053    8.55343724901589
H         4.78022074133526    8.29908398116558    9.09123703460522
C        -0.03386707890898   -0.36707940120720   11.04772873740360
H        -0.78751585371931   -0.14741743041771   11.79494916386340
C         0.61969487098689   -1.60309751427170   11.03957571348714
H         0.36791844422730   -2.34053228271641   11.78469297217805
C         1.57555992555739   -1.85125321082526   10.08446839836224
H         2.10602280039748   -2.79155064450150   10.05066729693026
C         1.86506056267971   -0.85989053789067    9.13167910735431
C         2.83786288870160   -1.03148704697122    8.10654744962231
H         3.38080593122453   -1.96438177705184    8.07335343746336
C         3.07462590832236   -0.05622208899485    7.19699059069096
H         3.81161761848705   -0.19028815410402    6.41928963429004
C         2.35728125629186    1.17369721218116    7.23037588462515
C         2.56132814284346    2.19971345325311    6.29367532158970
H         3.30031123605642    2.07339020700937    5.51681838619528
C         1.80846140414734    3.34585983831705    6.38506339122323
H         1.92879235889760    4.15204912236966    5.68008093289707
C         0.88360668658699    3.47668681604873    7.42095995444274
H         0.28555382878857    4.37590768628695    7.50719944504169
C         1.40030947826104    1.38989037963309    8.24646375153457
C         1.15170928628212    0.35696566368209    9.21330284338357

