55
CSD_code = HIGZUV | q = 0 | S = 0 | Stoichiometry = C22H24ClN3O2OsS2 | MND = 9
C         6.09647868141542   11.27279661450573    1.38534323854477
H         6.54804366620398   12.05352299164919    1.98650309678871
C         6.50443481880951   11.07246937924170    0.08895412102536
H         7.28588713678382   11.68832407864858   -0.32635916004434
C         5.88766012771815   10.08084039208141   -0.67252032325887
H         6.17844961955729    9.90768575788624   -1.69573865869145
C         4.89041205705012    9.33788092731738   -0.07821710985210
H         4.35960098463568    8.55911634211136   -0.60074299526711
C         4.52019977993454    9.58476686394965    1.24246604623821
C         3.48508378468784    8.76986543971479    1.87110840630734
C         1.94331341748242    6.99808224151729    1.59999372010430
C         2.18328868243788    6.16367207520220    2.70055249195618
H         3.09201134306564    6.29081998506777    3.26813980504568
C         1.27333284900585    5.18213534898917    3.03641649990034
H         1.42770242683660    4.52985614768690    3.88183192651001
C         0.11863671735938    5.03817285931330    2.29185690144468
C        -0.14034799131580    5.85162147804081    1.20321782784565
H        -1.06373422407186    5.71812472293369    0.66107719421387
C         0.77354067701285    6.82036642724991    0.84749047993942
H         0.59601834153339    7.47249970582359    0.00692849971460
C         5.14049965039925   13.15888141360459    5.59113058895528
C         4.25425719896186   12.26634666386778    6.24760435434478
H         3.41280787535858   12.67632455463774    6.78884094266293
C         4.51060362511798   10.90857109984947    6.30080449748998
H         3.88933499293048   10.26561444137714    6.91142840167031
C         5.58212136897424   10.33507774626689    5.56960944261735
C         6.41152136936376   11.22433995605694    4.83252663240080
H         7.33616184923296   10.85353131833668    4.40373612365442
C         6.23936034081439   12.62893709797251    4.93879277411616
H         6.97464216366724   13.28814341014003    4.49538845449632
C         4.88557710352932   14.63124190840994    5.64778057223312
H         4.05205504975318   14.88542495940586    4.99170387108253
H         5.75901462113202   15.19335596688488    5.32581819716884
H         4.61758633763562   14.93671902193580    6.65773509899516
C         6.83579048518099    8.80560882619168    7.05778369491032
H         7.75869826084877    9.36287002079927    6.90873312248010
H         7.08808171799117    7.76997662340933    7.27009354198652
H         6.32011033162595    9.21982268566924    7.92113816395440
C         5.95375196410478    8.88694234854049    5.80674928404664
H         5.02802434469036    8.33252582049134    5.99455496549152
C         6.65417129657459    8.24137301267694    4.61154275447274
H         6.07541832412098    8.40031412207685    3.70156617384238
H         6.74619397875467    7.17126470643832    4.77733534176016
H         7.65440346882317    8.64427140967902    4.47057912856291
N         5.12445806996828   10.55645747556861    1.98283316862854
N         2.85453556401667    7.91678694613311    1.15861963822654
N        -0.62687383779103    2.50222043941286    1.63423648519558
H        -0.79779146498906    2.74122141077943    0.67188696391973
H         0.30005085616171    2.14210964893247    1.78696875769558
O        -2.36163782740144    4.13822258419842    2.35451034819915
O        -0.75455614938061    3.24200556955277    4.01203565461760
S         3.22664578436037    9.08389278030887    3.57212371349371
S        -1.03172152275616    3.73832748269729    2.69830451439321
Cl        2.82125446554692   12.24899273438927    2.74570649621817
Os        4.46113544653972   11.06086401437834    3.72739612755248

