40
CSD_code = HIJMOC | q = 0 | S = 0 | Stoichiometry = C15H16BrN2O4ReS | MND = 6
Re        1.97201422467337    3.88527262825199    3.16854475800576
Br        0.48532245800727    3.25220789055928    1.34411726664403
S         2.14570555094031    1.03679645158188    3.83244338641335
O        -0.44184709572744    4.59055648028211    4.95771206011088
O         2.70183288749547    6.80125571811682    2.45126317411824
O         3.98986096858583    3.63930790436216    5.48509686223585
O         3.49091321081196    3.01617915697011    1.78552272154810
C         0.48506157207925    4.38168556358691    4.32041885911185
C         2.43322475103349    5.73146070214797    2.76382121829340
C         3.22860727833387    3.79245589996243    4.63358431044333
N         4.46912482812028    1.08463575299987    2.54200836018148
H         5.26430093926785    0.49046348003119    2.34822350393440
N         4.53213024022999    0.45823980547051    4.78723662938278
C         3.80400546324653    0.88133375380837    3.74595631743237
C         4.20055247446974    2.04557345472690    1.58769254762957
C         3.89184784106974    0.24864663901065    6.07356989605641
H         3.02873653115676    0.91512620935923    6.14231069192742
H         4.60428525770297    0.52394095518731    6.85332391210001
C         3.43666730636200   -1.19619881014664    6.24354411492147
H         2.98547745711856   -1.32295449576839    7.22289674760967
H         4.27600987511820   -1.88286291835883    6.15412082949855
H         2.69658570501615   -1.44510390229501    5.48758439687447
C         5.97438910397488    0.30346011510782    4.73690979893640
H         6.26856998794975   -0.27132324701648    3.85093476005818
H         6.26447262768945   -0.28585123528640    5.60826063616466
C         6.69573617755425    1.64971904619561    4.76479753909048
H         7.77020948452605    1.49295360630992    4.80218423743141
H         6.39321386243939    2.21671643511066    5.64138914633648
H         6.46194160385428    2.24314056591274    3.88409853555108
C         4.89370374413717    1.86554997675027    0.29641191062619
C         5.07489184564638    2.99430143606680   -0.50366572938153
H         4.72517961994340    3.95063750278936   -0.14450861737149
C         5.69201176278346    2.88302748501364   -1.73396278989090
H         5.83053529657301    3.76067912443494   -2.34629102725404
C         6.12367857084833    1.64498819645009   -2.18301241809895
H         6.60193826733637    1.55543077158499   -3.14652254031312
C         5.92831252462104    0.51652028702397   -1.40231671676840
H         6.24574130498619   -0.45092925087609   -1.76145706720446
C         5.31741594759739    0.62024979870430   -0.16674389860221
H         5.13623854243219   -0.27818893415066    0.40730167622599

