31
CSD_code = HIKCUZ | q = 0 | S = 0 | Stoichiometry = C14H12I2O2Zn | MND = 4
Zn        8.59546013383976    0.49789595643837    4.07105404078846
I         7.10450615402523    1.09231894656713    2.16221052306670
O         9.80900075764692   -1.04097956152321    3.12370578391391
C        11.60109578349812   -2.33565224716875    2.29601982634014
C        12.85120693515933   -2.88858113058643    2.59027967154667
H        13.29053568900145   -2.72520745467221    3.56346802886221
C        13.51347876819692   -3.63563298011856    1.63700973898792
H        14.47879481628461   -4.06352371229062    1.86111181115048
C        12.93969591857905   -3.83530581582149    0.38871569488279
H        13.46274090729367   -4.41923057882735   -0.35385566372588
C        11.70014809633051   -3.28797599312989    0.08791843995155
H        11.26176470722154   -3.44489641035752   -0.88582028981091
C        11.02994393982365   -2.54105132242910    1.03464218005717
H        10.06636284855702   -2.10310989400894    0.82023854872122
C        10.90426647741037   -1.54549779735127    3.29353878599481
H        11.43905204171300   -1.41799801616033    4.25090374757633
I        10.08133004975415    1.07128482239041    5.99114339805473
O         7.38444606367563   -1.05099071451387    5.00454463124888
C         6.28395500472174   -1.54694627923014    4.84341103356197
C         5.59097867053470   -2.33537266688486    5.84496326922807
C         4.33792948722138   -2.88550547369060    5.55805288852513
H         3.89292143465024   -2.72049264987821    4.58772799151478
C         3.68032713463998   -3.63240519699192    6.51466168398629
H         2.71298436507834   -4.05858387351312    6.29607821979075
C         4.26132222838920   -3.83396367684833    7.75931659124091
H         3.74187608414439   -4.41773039501297    8.50452916884060
C         5.50351617518509   -3.28881404388354    8.05306338322593
H         5.94748498409134   -3.44706570194475    9.02405084724220
C         6.16941017833413   -2.54263177113617    7.10271724821621
H         7.13505077085322   -2.10656433201959    7.31162863788891
H         5.74101339412689   -1.41189003539395    3.89167013911865

