55
CSD_code = HIPHUJ | q = 0 | S = 0 | Stoichiometry = C23H25ClNO2PPdS | MND = 4
Pd        0.10610146753859    9.01293961578591    4.87553086923551
S        -0.43401627953864    7.14807126818898    3.57540834662736
Cl        0.63520723547868   10.69788313298154    6.35303015923450
P        -0.92692167554510   10.51505497147094    3.63040227790720
C         0.19134487432923   11.70748472931356    2.84915298634620
C        -0.26965291836449   12.67275593102676    1.95785702467012
H        -1.32244825137914   12.72010137372179    1.71242427617376
C         0.62665351359658   13.55244076508343    1.37948711978182
H         0.27285194736151   14.30788801291305    0.69270815581426
C         1.97844882049505   13.46271942901758    1.67523353972731
H         2.67328735325702   14.15432340056369    1.22127134589148
C         2.44072061681253   12.48366821153670    2.53962003286307
H         3.49612366816456   12.40824702093613    2.75558291141741
C         1.55038592234867   11.60149841549025    3.12645249224472
H         1.89449901121516   10.82145627251589    3.80331473097838
C        -2.08256128682011   11.39797031637808    4.71610507274522
C        -2.72807087751109   10.58593924556743    5.64889335722972
H        -2.49694860723337    9.51582955262582    5.66271324131369
C        -3.62153748788714   11.13654600847316    6.54588756832738
H        -4.12102467379157   10.51058690656281    7.27090638860747
C        -3.86416460341347   12.50242655083565    6.52412792868865
H        -4.55419436586590   12.93751166681066    7.23216985263748
C        -3.21101396601793   13.31161300769333    5.61050352396557
H        -3.38988138125960   14.37704680527057    5.60915912656796
C        -2.31884862243237   12.76459301901712    4.70253049507638
H        -1.79418476940156   13.39973457709120    4.00372577950819
C        -1.94836836340298    9.97940292642743    2.22592731256553
C        -3.32701705595868   10.13694985856759    2.17427649728974
H        -3.84800706890002   10.61536608852162    2.99226005290490
C        -4.02843659583203    9.67772998361539    1.07249471179807
H        -5.10116925638970    9.79996596825894    1.03114165606911
C        -3.36095941563519    9.05927521283353    0.02910761607695
H        -3.91426236043316    8.69842413020981   -0.82558395876324
C        -1.98502336893386    8.89520950707783    0.08259921991669
H        -1.46730815861449    8.40495551204230   -0.72855541914014
C        -1.27978049689921    9.35209931030393    1.17795204792437
H        -0.20729528594089    9.21963961216140    1.24818190060917
C         2.54030821192876    7.17549101510442    4.39299435193139
C         1.57671775989672    6.55479821997632    5.40202714590276
H         2.11883149620006    5.78964880583209    5.98442365173974
C         0.43908254616037    5.90553602444499    4.60507125399265
H        -0.28172035598668    5.44662839162949    5.28820269677027
H         0.83238486993622    5.13935958627199    3.93578763135514
C         4.19362741692442    6.70533762650222    2.79315579679591
H         5.07282901976130    7.17363450829649    3.24894220490838
H         3.66597070349904    7.45893342740487    2.19938437143077
C         4.58225207922898    5.50308957469099    1.95427087796913
H         5.26304893457433    5.81456551100732    1.16759256786631
H         3.69876419864506    5.05897878076339    1.50357051993155
H         5.07136358554605    4.75553312223209    2.57302238110167
O         2.56221389498916    8.35066911799180    4.11802317290647
O         3.32396593194912    6.26235075186333    3.84520683436535
N         1.01547729083913    7.61506501729549    6.23023374613545
H         1.73003971222449    8.13665276159122    6.74569481503336
H         0.32991546645478    7.24827944015833    6.89399573903248

