23
CSD_code = HIPMAV | q = 0 | S = 0 | Stoichiometry = C8H8I2N4Zn | MND = 4
Zn        2.12819324257767    8.15067053223186    2.75944905404536
I         3.98788952250933    9.82470939762687    3.01623095625716
I        -0.20763449151211    7.98579248113484    1.86953772597658
N         2.00619053382864    7.20768068090935    4.78728064498464
C         1.14029466992048    6.22434746788597    5.01578641658262
H         0.50060133733101    5.91670305099108    4.19900893593416
N         0.98423120246486    5.58603579962413    6.15204539071485
C         1.73711523247742    5.96159723556004    7.17409423189907
H         1.58458287893737    5.42386294529519    8.09997266134757
C         2.66424458658001    6.98756926203260    7.05517852469768
H         3.27788990730897    7.30707287458944    7.88083620327120
C         2.76788062472272    7.58642524078800    5.81102319916131
H         3.47189545112144    8.38753448975923    5.62799196360172
N         3.16701168235109    6.32835231102456    1.98911567501019
C         2.47698081122152    5.25475658899642    1.61447325226176
H         1.39704809917306    5.31386405549104    1.64512535674397
N         2.98799056920917    4.11880034207546    1.20051877624950
C         4.30637423752213    4.02922296664806    1.13000144172080
H         4.70130674749473    3.08345599398472    0.78462547136950
C         5.12640670829202    5.09306405907975    1.47958825551659
H         6.20009751640602    5.03630914669334    1.41789643303773
C         4.49337006193826    6.24378664810606    1.91800082458295
H         5.05693886813218    7.11858642946418    2.21461860502678

