35
CSD_code = HIWGAY | q = 0 | S = 0 | Stoichiometry = C11H21ClIrP | MND = 6
Ir        4.08946352820252    3.49455185398001    6.05614937683066
P         2.91386378573339    5.02345486282672    4.76321997343449
Cl        5.22651014846344    3.21345382352956    4.06994000648133
C         2.62551323360018    3.21220308203838    7.54765480992319
H         1.64248081101477    3.56773065611150    7.23922493526605
C         5.75624127789855    2.69995079342977    7.15542562408413
H         6.63403622244847    2.75722304011287    6.51543826709761
C         5.91584189044051    3.41900101133505    8.47467574763205
H         6.56209340835097    4.28309148610606    8.31011906989517
H         6.42870815377299    2.76179669607103    9.18485762342982
C         4.57683255990393    3.89988573218853    9.06638435280489
H         4.17766724845668    3.15759932219057    9.75892079126274
H         4.75407891988435    4.81145107440242    9.64003143527661
C         3.54563464193786    4.18163627176610    7.99069017322407
H         3.21616161282640    5.21861122857716    7.96108139197886
C         4.85622456170292    1.66856628469049    6.92699580442304
H         5.06606425568400    0.99523022110674    6.09948963233812
C         2.58897866223454    1.78644258853937    8.05361777581042
H         1.88999457644382    1.22895003055296    7.42692311235770
H         2.19178679881948    1.76837523095050    9.07451260269347
C         3.94729414872541    6.37255064340694    4.07991984611746
H         3.35946618123776    7.01060948517406    3.42063304359770
H         4.77183460212660    5.92759779156118    3.52788828371851
H         4.35236623252462    6.96603869165142    4.89752196445845
C         1.50203783556004    6.00638116602803    5.42901760187169
H         1.12596728288870    6.69136561870388    4.67097601661794
H         1.82601323010905    6.57830302308360    6.29517190514595
H         0.69880020860011    5.33995662330860    5.73422308340810
C         2.14483585566406    4.35612304408232    3.24023104418643
H         1.69624870725609    5.15764385033720    2.65423104004182
H         1.38123496980434    3.62855024218927    3.50948513513050
H         2.91469296516653    3.85586268430550    2.65744735876368
C         3.96445892992154    1.09459340177135    8.00649466874542
H         4.46920509030500    1.18628058213570    8.96908843671655
H         3.81796746229005    0.02973786175656    7.81821806523488

