58
CSD_code = HIYHED | q = 0 | S = 0 | Stoichiometry = C24H31AuBrP | MND = 2
Au        5.55424442641051    2.37470847997261    3.65926184144621
Br        5.44620894931897    0.00554190350726    3.62152642605676
C         6.28119748985068    5.72493269997907    2.53126763708778
C         6.50329576915345    7.07665676302786    2.79520694872482
H         6.33902333892824    7.46959942775999    3.78730784520935
C         6.94518710216921    7.92783448255174    1.80111629760968
H         7.11503082743348    8.97091251239630    2.02378589031616
C         7.16311014091853    7.44272241344027    0.52167040543052
H         7.49619426071314    8.10725242770314   -0.26133014116625
C         6.96809325518822    6.10122578406390    0.25441971487959
H         7.15666267677121    5.70871332756270   -0.73445972624039
C         6.54059235998619    5.22791947918616    1.24970606983734
C         6.43395436086863    3.79059973009980    0.92091597802553
C         5.36050808370563    3.29170145192445    0.19341890148531
H         4.56323223141643    3.95829310614019   -0.10490535505406
C         5.30859560208522    1.94843420792721   -0.13741122373473
H         4.46029812774090    1.56446844605616   -0.68437186028898
C         6.33757365730694    1.09882322743542    0.23065909724172
H         6.29110471907637    0.05037067257663   -0.01822363606571
C         7.42133781782339    1.59390957980414    0.93693558509325
H         8.22220454581467    0.93210066647469    1.23002234836856
C         7.46763112255343    2.93154275947874    1.28775394155788
H         8.31024713974641    3.32515744186711    1.84114873193992
C         3.82707071254642    5.21528084078989    3.95131030358103
H         3.40208284151744    4.58839764700281    4.75013965523078
C         3.12145410492693    4.86698496496738    2.63948283170937
H         3.28996358884984    3.81190755341771    2.39724978810102
H         3.54999827253490    5.46856540861811    1.83178241218950
C         1.62653906320832    5.14864460029959    2.74740163147136
H         1.13852876859958    4.91729136705159    1.79884631116139
H         1.19118070250698    4.50252462202215    3.51322808065806
C         1.38736078260117    6.60972237846326    3.11675216034560
H         0.31705452860685    6.79603770950383    3.22061076757067
H         1.76316752296406    7.25217647174784    2.31664350175590
C         2.10239574965845    6.95485599498831    4.41961377733593
H         1.68810490440624    6.35300741992819    5.23209078169492
H         1.94091917745376    8.00624636594732    4.66630973736705
C         3.60132677987119    6.68364905142132    4.29781324205937
H         4.09597002708083    6.93907014864599    5.23820045569424
H         4.01139367112942    7.31500846168390    3.50621510980510
C         6.44000078966692    5.15053977145302    5.35695051639867
H         6.36247714300411    6.23346810937409    5.50751082380132
C         5.81935217519160    4.42888715907616    6.55203638766407
H         5.81362360439717    3.35079380891646    6.35607603803156
H         4.78304925818488    4.74843345349549    6.69048959328484
C         6.61602548539568    4.70699931465002    7.82379526615674
H         6.56878976786006    5.77438995919168    8.05566913226025
H         6.17023161922199    4.16328312261417    8.65851007273001
C         8.07247900130815    4.29019571037686    7.64690016071250
H         8.63286068434919    4.50070600075339    8.55940911923885
H         8.12141559874364    3.21476961347998    7.46319326712611
C         8.69561110063007    5.03402762770401    6.46989822822770
H         9.73321597792791    4.72274867929952    6.33646899965276
H         8.69163641777733    6.10802686257324    6.67346403980980
C         7.90983922297386    4.75740328878623    5.19275680066608
H         7.96411102679224    3.68823668428571    4.95748019636720
H         8.34894276177130    5.30578048597818    4.35324677845350
P         5.57999916140336    4.62781835058995    3.80743231392826

