55
CSD_code = HOBPEU | q = 0 | S = 0 | Stoichiometry = C24H25Cl2FeN3 | MND = 5
Fe        4.98394273841874    3.09583464198233    0.45289239456755
Cl        4.13325038796769    1.84545400405115   -0.93685217059139
Cl        6.62926735058719    2.54575320949146    1.62155637496391
N         3.57681910241095    2.79648548663569    1.82681593262338
N         4.85500194437612    4.74335690620273    1.05782930782961
N         6.12570776146418    3.98837395726899   -0.88848635447543
C         3.34150830872605    3.85453498163740    2.55305161141821
C         4.06752874205868    5.01885655021148    2.14018417473728
C         4.01150420638336    6.29947907254782    2.67591385130917
H         3.38868368543555    6.49683260436087    3.53335440671943
C         4.76345096612600    7.31350690499653    2.09809332041630
H         4.72827742556107    8.31210730256857    2.50397565978054
C         5.56115397457398    7.03566518927723    0.99881445547857
H         6.15055625040329    7.81120743967196    0.53720417580523
C         5.59786887630820    5.74122364540626    0.48924312852525
C         6.34093664868613    5.25417109546628   -0.63256707234309
C         2.37723163361013    3.89950198030668    3.69795088811567
H         1.90072178552484    2.93176984575969    3.83289698969483
H         1.60976287786770    4.65157878868986    3.51919902240465
H         2.90433926782583    4.16716031852850    4.61287751245242
C         7.29829854501740    6.13093173616860   -1.37813099293072
H         7.92398762511786    5.53907807932423   -2.04109510493071
H         7.93282250959854    6.66028489968905   -0.66970859889163
H         6.75962655195727    6.87053181602340   -1.97012554183299
C         2.81088088904762    1.62440908905157    1.99968137202877
C         3.25614437536253    0.58100479017004    2.81627559724901
C         2.49458011208562   -0.57498718233746    2.89278530850055
H         2.83980178005202   -1.38504374807123    3.51960688679391
C         1.30736131138927   -0.71632143979824    2.19046041633001
C         0.86936607120097    0.34584708811978    1.41286405503836
H        -0.06191427571076    0.25870328283634    0.87152975298893
C         1.59722756837124    1.51926694318165    1.30850685144069
C         4.51525636647716    0.72046473050504    3.61147821782426
H         4.69679559965466   -0.17272012945722    4.20322024239580
H         4.45491805034707    1.57826748704418    4.28100734903854
H         5.36584341693907    0.88702020739325    2.95376387447444
C         0.52263988606236   -1.99120810577384    2.25693121732051
H        -0.54118899846031   -1.80009366348431    2.13565521207170
H         0.68606101506322   -2.50028452637497    3.20393682414423
H         0.83793512885215   -2.65996049930663    1.45550124981946
C         1.09666852447158    2.66124403524872    0.47731816349388
H         1.83581443296839    2.92059472793308   -0.27981207995668
H         0.92226020637629    3.54424558156883    1.09247639459181
H         0.16682472174201    2.39237623314221   -0.01639697167318
C         6.67129770144880    3.34648129072014   -2.00340783343812
C         7.41083343653647    2.17745323255935   -1.83389437680004
H         7.59438303641800    1.81359134806838   -0.83377262170224
C         7.89874057420183    1.50424485053259   -2.93644993713634
H         8.47407601806427    0.60121644941121   -2.79722605176523
C         7.64739273567866    1.97608321363160   -4.21512274050216
H         8.02431524120962    1.44193470584301   -5.07436672857531
C         6.89904364435176    3.12815653040211   -4.38760668421244
H         6.68665151247492    3.49385654698599   -5.38159730461288
C         6.41402324816381    3.81531462032443   -3.29137078582344
H         5.80541750315656    4.69826185367676   -3.42166224021553

