62
CSD_code = HOCDEJ | q = 0 | S = 0 | Stoichiometry = C24H33AuClO2P | MND = 2
Au        7.69418974942260    6.78288783926602   10.09328677813828
P         5.43566200457718    6.85662625076916   10.31819938604868
O         4.92300585494552    8.41706351172058   10.13051061461364
O         5.05168169324877    6.82308772070945   11.92582791934210
Cl        9.94601825198110    6.78940778649190    9.93994433456624
C         3.96852658597358    5.97421952375812    9.63746754771498
C         3.37550286669167    4.94837021400739   10.39210247223316
C         1.99948030943849    4.77659785871553   10.29435190852015
H         1.53377956074102    4.03667059352710   10.92131179789619
C         1.21540647884791    5.53388541095854    9.43978655639872
C         1.88083118459490    6.34346834502007    8.52863321868604
H         1.31089894271050    6.83839259284592    7.75953703144839
C         3.24986957473614    6.55831120568712    8.57817909687802
C         4.15413094193396    3.91836410589968   11.20230738617349
C         3.76735623702503    2.53013509655083   10.65532682330732
H         3.96461716095099    2.47797738395210    9.58665128392413
H         2.71919286093232    2.30124512642071   10.82084539145989
H         4.35755887587254    1.76324739059544   11.15144953187293
C         3.79969718832206    3.99069960593481   12.69185329093130
H         2.73097950841769    3.86792520775098   12.84865176125522
H         4.10107934279226    4.94746648669426   13.10817959477746
H         4.31831805358031    3.20240416142624   13.23264572271344
C         5.66885489809763    4.04235798226529   11.03389601356650
H         6.15167820064675    3.14694290626010   11.42148020553587
H         6.07525171202736    4.88303735568038   11.59034769827047
H         5.93922624375609    4.13520836172731    9.98183641024366
C        -0.30079154864860    5.44970385391924    9.40863933895044
C        -0.74481180450445    4.86683013515658    8.05968973534480
H        -0.44287709332601    5.50404270572681    7.23313054370642
H        -1.82767086479598    4.76778039462604    8.03450612497110
H        -0.30424553891311    3.88329966890548    7.91051418136979
C        -0.87727776149893    6.86195870828652    9.58279524423705
H        -0.54951254735321    7.28847273337314   10.52879624870581
H        -1.96434158801421    6.82453275108641    9.57891058249675
H        -0.55900251023877    7.52437572908436    8.78275528120859
C        -0.86322142986569    4.56537303131761   10.52476050275189
H        -0.55703521929289    3.52944670750853   10.39890979843626
H        -1.95035099859396    4.59526234691902   10.49703825605456
H        -0.54167015173973    4.91873170457463   11.50197300495554
C         3.89161881425908    7.28796110389916    7.40377311800940
C         3.45282096639871    6.55175452032806    6.12262421411784
H         3.72159574331221    5.49920255873112    6.18183338850277
H         3.95283248402878    6.98624157031752    5.26018297215223
H         2.38247106863824    6.62155767738390    5.95543344809489
C         3.43054917260098    8.74795255159969    7.33056969778988
H         2.34684265609256    8.81645086016580    7.27785149764553
H         3.84747354939778    9.22223358943833    6.44508392902188
H         3.76753548996106    9.29725420543843    8.20477018721222
C         5.41955549963900    7.23862943696125    7.42945166132765
H         5.83823215362152    7.91861969164565    8.16697729004118
H         5.80932615630255    7.54745640925806    6.46105076197144
H         5.77514160897943    6.22618617278218    7.62192329552219
C         4.24802186865588    8.85551898057763   11.24677896018065
C         3.57690576875317   10.04565926580320   11.39123226026718
H         3.52449768753667   10.75535394384762   10.58213189674572
C         2.97629498122081   10.29484324387757   12.62253864683550
H         2.44507810887828   11.22237214343715   12.76643085163449
C         3.05115023560359    9.37904849218598   13.65458945866416
H         2.57822941424191    9.59604448410139   14.59931091035314
C         3.72967993305119    8.17280194340995   13.50141782530983
H         3.79415399114075    7.45403729456429   14.30164161888384
C         4.32290742209309    7.93350936509659   12.28547348994870

