23
CSD_code = HOJJUM | q = 0 | S = 0 | Stoichiometry = C6H8Cl4N2O2Pt | MND = 6
Pt        2.53817485829676    1.38468768983763    0.27670168306331
C         4.98835325206157    1.99749532040349    1.68293175413198
C         5.92097575921644    1.97928023083334    2.71283291833248
C         5.64898950314769    1.24511314419922    3.86448003090896
C         4.45056242788846    0.55751283806005    3.93781961268881
C         3.56925065981762    0.62212399780590    2.87159011015220
C         7.20894836294476    2.73028569821418    2.61076811853490
Cl        2.78666744763411    3.73537277758511    0.06394940789813
Cl        4.25868916881606    1.02055691230410   -1.31660518430337
Cl        2.20914937707037   -0.96642985609536    0.38700736075771
Cl        0.73007481801173    1.75832347110385    1.77355895876716
N         1.17036297357222    1.44179067129879   -1.28738357841613
H         1.49989070623986    2.07901009852861   -2.01728482141755
H         0.26672296818601    1.76769368570463   -0.93222826246283
H         1.05873176761883    0.50227194899992   -1.67869966472725
N         3.84060107495247    1.32926752884763    1.77205880819985
O         7.33006854914037    3.38992486248121    1.46383334584288
H         8.17472645810652    3.86704173581175    1.42528462569355
O         8.04197683212926    2.73260879671954    3.47700362759027
H         5.18014812958913    2.56199514312501    0.77824193006977
H         6.37295840676847    1.23028340031644    4.66539036801082
H         4.19221118437788   -0.02529018713613    4.80708189339810
H         2.62336531441392    0.09528009105094    2.89746695728638

