47
CSD_code = HOKBIV | q = 0 | S = 0 | Stoichiometry = C23H18ClN3OPd | MND = 4
O        11.96821762425666    5.58627237906306    9.84652920470442
N         9.33217564426420    8.57596700886825   10.10866579657959
N         7.97019027465706    6.29177793052236    9.06285851614154
C         9.49891299983713    4.64687776303998    8.64044220973432
H         8.64569895830714    4.22069489822553    8.11840590498906
C        11.85312060146576    4.42435691739695    9.33639727335259
C         7.53098989567729    6.95646737766625   10.28588343263565
H         7.94783278349848    6.39281790871234   11.13268580280103
H         6.44174142172367    6.92406507598332   10.34154127575680
C        10.69833171868583    3.91010535585461    8.66607422377494
C         7.76200076903202    7.04237049543591    7.87766102210399
C         8.01884510754576    8.38642518015157   10.29894893937082
C        10.75455184897651    2.60466609302601    8.04773154069052
Cl       12.20919649976627    8.28493923909752   11.02194123718767
C         8.94924343312937   10.92826250953070   10.01525151054148
H         9.36240392796984   11.91536006950233    9.88743356872594
C         7.12673316493241    9.44556164171444   10.37472570716351
H         6.07779108401567    9.24950439043110   10.53364430307818
C        13.00845128268129    3.57707700082086    9.44091640127358
H        13.85180992573579    3.98845952963305    9.97491263643493
C        11.99948919401433    0.54586064171140    7.59964880064910
H        12.90918291705607   -0.02482473155646    7.72168230655391
C         9.69786253859157    2.04722761260786    7.30582595422975
H         8.78361523527962    2.59805800318244    7.14929510212180
C         6.45692449747613    7.36338341155873    7.51153689539886
H         5.63328007217231    7.03568774536104    8.12693287978469
C         9.78171206853882    9.82570287744325    9.95293957870473
H        10.84919003960970    9.93734367155744    9.80139921218963
C         8.82063416036659    7.45887595529969    7.07212486733202
H         9.85214009588771    7.23006454525161    7.34672077792782
C         7.27072775507697    8.49910641382022    5.55934822405085
H         7.07981353844786    9.06404135692776    4.65999083138406
C        13.03980138962392    2.34308114821701    8.89575121871847
H        13.92214677645045    1.72534800554368    8.98923813987300
C         9.78911976881503    0.79634451470375    6.74532040164964
H         8.95545249437330    0.40333120063927    6.18136099600121
C        11.92861194783505    1.82243043880593    8.17745340637835
C         7.59552839639861   10.74197102652390   10.24623227633354
H         6.91956334882002   11.58037796484113   10.31051281338095
C         6.21747956928447    8.08611539048944    6.35935219466218
H         5.20176735400603    8.32741303914525    6.08347410849123
C         8.56867794659644    8.18220251730832    5.92018097665827
H         9.39573626059393    8.50400627020593    5.30546541955464
C        10.94425627883595    0.02982988537656    6.89309239068436
H        11.00334667645774   -0.95308898311047    6.45052858739400
Pd       10.62432241102502    7.05007180581017   10.01433361736362
N         9.27197830220846    5.79170950765983    9.22060751548920

