46
CSD_code = HOQGUQ | q = 0 | S = 0 | Stoichiometry = C17H18Cl2N3O4PPt | MND = 4
Pt        7.22481033333241   -0.63883655729359   -1.00466946088796
Cl        7.82552853725521   -0.35998336878963   -3.13949291766999
Cl        6.00882258877571    1.21440146424684   -1.20550799078173
P         6.09138155905534   -0.81877207229386    4.84158417118015
O         6.17390865506423    0.60651378236740    5.17391818597229
O         4.62659480454873   -1.44982778222408    4.93402620542157
O         6.94044008034480   -1.72812326473547    5.87661222169801
O         5.98034305696552   -3.90997009463909    4.32655187913072
H         5.53613851444104   -4.35740856246449    5.05603197209836
N         6.84025948438758   -1.03791340275906    0.97151133691829
N         7.55094890417512   -2.11842166155024    1.39359353419858
N         8.24333764236913   -2.35382264807563   -0.78785452180643
C         6.25034949325990   -0.50533496447577    2.02815897049178
C         6.59565719831647   -1.25566879568425    3.17411080565773
C         7.43303986466967   -2.26265254497667    2.74416631144761
C         8.17485113978239   -2.90870616276294    0.43707816495328
C         8.64890388541548   -4.19082602359330    0.69374520014302
H         8.52613738514440   -4.63176064328201    1.66757912835092
C         9.26436775811772   -4.88829830692635   -0.32977238157836
H         9.63905949922953   -5.88407270640339   -0.15425182774944
C         9.38128159628762   -4.28897665812825   -1.57849320202436
H         9.86452382764572   -4.79633034891263   -2.39671301350297
C         8.84615998663217   -3.03230736224251   -1.76875060106980
H         8.88120549298686   -2.52625006694927   -2.72560610593868
C         5.35936440084378    0.66920477888253    1.99765836404328
H         5.58617409140242    1.29614833543735    1.13665559842035
H         5.46468105609929    1.22578673129303    2.92494553159163
H         4.32444195925457    0.33897017172481    1.90881138102583
C         8.10948118570768   -3.24356774108297    3.58503861230111
C         7.32008205861661   -4.02522667522219    4.44063983963959
C         7.93646661020820   -4.89577312899757    5.33036585636961
H         7.32879060593428   -5.49381027211705    5.99510778853171
C         9.31603139539382   -4.98688699507193    5.37464562590958
H         9.78266560148330   -5.66300801532483    6.07443377347618
C        10.09817048264109   -4.21440050537653    4.53142787170382
H        11.17375986902629   -4.28204051580494    4.57294781877382
C         9.49546133599207   -3.34203033939050    3.64361922751724
H        10.09589196073909   -2.72020687382680    2.99557316022682
C         3.65925832051056   -0.81060766639836    5.75325842864993
H         3.92900300173040    0.23556785418300    5.91238963972692
H         3.59156506005785   -1.31695882069380    6.71768815809046
H         2.70200763708435   -0.87398835679087    5.23613660006697
C         8.08417739196775   -1.17014657757612    6.49782505448029
H         8.98552630071380   -1.47690959928985    5.96271019881686
H         8.11873741817774   -1.54953617817595    7.51896667720556
H         8.01311096825576   -0.08113085784070    6.50809872879301

