33
CSD_code = HORCOJ | q = 0 | S = 0 | Stoichiometry = C16H12Cl2N2Pt | MND = 4
Pt        5.26710491451870   15.41939443008387    3.97924221311927
Cl        5.21985592738115   13.23767255398077    3.50435250661054
Cl        6.30877630667753   14.86958719123226    5.88670580179022
N         4.18250783316005   16.06492536552786    2.38787351807449
N         5.02255610461945   17.31256466957785    4.50481512755394
C         3.91702840695573   15.47464964016228    1.19603957578022
C         4.76427853965737   14.46849000690385    0.69381205404405
H         5.65297667896164   14.21592452791617    1.25071423130340
C         4.46053495807354   13.83158611910452   -0.48088362089332
H         5.11319071105119   13.05726077945605   -0.85304245402165
C         3.31823298633055   14.18140994785679   -1.21184516337230
H         3.08963696500210   13.65945692517411   -2.12863238552457
C         2.51386935031313   15.20427581654424   -0.78248574228348
H         1.65488467368063   15.51350174987445   -1.35985382281624
C         2.80042674044595   15.88671527442157    0.41169042663201
C         2.03353134928508   16.98935935005894    0.85729050167891
H         1.17355562495128   17.30044517194376    0.28336146010693
C         2.41498195347711   17.65925861171917    1.98032445182461
H         1.89057009885432   18.53623359677193    2.32566142575191
C         3.50241598952570   17.17326840173303    2.74051173406408
C         4.00549910523394   17.84965096076672    3.89178007959641
H         3.61579864390643   18.82398198957449    4.16985530421702
C         5.66612599367404   17.95088471322872    5.56087834968842
C         4.96493064823416   18.66608875918823    6.53268999762039
H         3.88655573559053   18.71557251702773    6.49121579456898
C         5.64805851545153   19.25353852750609    7.57937471190891
H         5.09987046753868   19.79035298042707    8.33898811230841
C         7.02716082416307   19.14473853074342    7.66374090097505
H         7.55361416499229   19.60238401920159    8.48736377260001
C         7.72681359877195   18.43723303769459    6.69908540730844
H         8.79960203398142   18.34386638602350    6.76791238673851
C         7.05441260835562   17.83579516135228    5.65418325685757
H         7.58474154718377   17.28113228722019    4.89318008619063

