62
CSD_code = HOSZEW | q = 0 | S = 0 | Stoichiometry = C29H27ClNOPPdS | MND = 4
Pd        4.66480005896040    4.59392291499601   14.13812426515579
P         6.34070836329703    4.38465057980536   15.56931963970032
Cl        3.61297440002054    5.75715372291656   15.81616073164550
O         2.44035567347206    5.03452462675009   10.67513319873322
C         3.40772037030045    5.23963979951954   11.57699086803346
N         3.14670347176642    4.88330014596705   12.77409043261931
C         1.84351205113609    4.23850301459130   12.82578971721932
C         1.38075152898683    4.35158613228270   11.34789770871094
H         1.24339353759965    3.37761570040188   10.86964764174228
H         0.46628546219522    4.93995036721800   11.23985428529708
C         0.91689596886341    4.98071104435591   13.78646562109253
H        -0.04097952194365    4.47059367632167   13.85126547985377
H         0.75593882646088    6.00191334570633   13.44642791747435
H         1.37488808160244    5.02311838675249   14.77378374702225
C         2.08147069392471    2.79836538959195   13.29525316149251
H         2.63188649675212    2.83052265660180   14.25133353523613
H         2.68470470288971    2.25413153437945   12.56679648910537
H         1.13890316573739    2.27762971178256   13.44499038657046
S         5.84706683013937    3.58606173376701   12.39213076536288
C         5.87496483537735    5.12806546414072   11.56086258725573
C         4.69556033602185    5.79753320038792   11.16838012826309
C         4.76707305791294    6.95151960822741   10.39878973407646
H         3.85013828600812    7.43946702840825   10.10290801523183
C         5.99452269735760    7.47225456497622   10.03342060580955
H         6.04348488713407    8.37575738367913    9.44519889742017
C         7.15955815006749    6.82534979701400   10.42274236704319
H         8.12044297118362    7.22881096898792   10.13819540520676
C         7.10205054363285    5.66278558988301   11.16404254882889
H         8.00347540074194    5.14334429869603   11.45558121802606
C         7.92146900412114    3.69005445262546   14.99720883075642
C         7.96599975358762    2.31405576792392   14.78785668538255
H         7.08425952130993    1.72138972169022   14.99883806143676
C         9.11430855116990    1.72384894740716   14.29967448005959
H         9.14554958739575    0.65700254650870   14.13516614245425
C        10.22319870864123    2.50465145401054   14.00968269571945
H        11.12040614781740    2.04449207531242   13.62254262773723
C        10.17807662493700    3.87423923519215   14.20560515901843
H        11.03994678584817    4.48258369156639   13.97176771633097
C         9.02898364597463    4.47185844562265   14.69524911814923
H         8.99239381933248    5.54298279102790   14.84125928696234
C         6.76547195594772    6.09436639755872   16.01397393183113
C         6.62330486180984    7.01041689451145   14.96914894780231
H         6.27011585226979    6.66276834123495   13.98858187435746
C         6.90601067165212    8.34607202621721   15.17733621705884
H         6.79417033281202    9.05533665876151   14.37026075895882
C         7.31837676930092    8.77536692658008   16.43053223723866
H         7.52946273700383    9.82126813696271   16.59770901384892
C         7.44247515991496    7.87086357002448   17.47112901633419
H         7.74679505068592    8.21272087019009   18.44959096632926
C         7.16874532454350    6.52805059891808   17.26824789819285
H         7.24557021042228    5.82650340902276   18.08605703455806
C         6.01689050174331    3.41903066434937   17.06519975370966
C         7.00768731894312    3.16168963961276   18.00827594805996
H         8.00669112951179    3.54982966280998   17.86024735832670
C         6.71010328460668    2.39391433424866   19.11898789710150
H         7.47368943682683    2.19770266703882   19.85765322879329
C         5.43666179816597    1.87053140435261   19.28308459781440
H         5.21095969430586    1.27286854640273   20.15392376857121
C         4.45792834602280    2.10125685749606   18.32982090754831
H         3.47161402336675    1.67979891905116   18.45458486377120
C         4.74757844868404    2.87154053081867   17.21825278117907
H         3.99475361374144    3.06966142682228   16.45567309541325

