33
CSD_code = HOTLOR | q = 0 | S = 0 | Stoichiometry = C16H13ClN2Pd | MND = 4
Pd        2.46044559950805   16.84316156032625    1.77661228394088
Cl        3.45618640985083   15.05247002986937    0.97817869588382
N         1.68836357040580   18.54547263613405    2.53620306522777
N         4.22195453362020   18.09638079949899    1.85236698607432
C         0.42437244393430   18.70471661499782    2.93606023362935
H        -0.23869759514871   17.86378780355151    2.77086963220486
C        -0.04024368196888   19.86254086418510    3.52767090298700
H        -1.07214731230049   19.93730772677014    3.82994901966725
C         0.84506392237341   20.91543687004000    3.72688500351335
H         0.52144395728993   21.83245302622293    4.19426977075586
C         2.15357805701523   20.76038000627765    3.31402656841033
H         2.86095642876294   21.55861010669644    3.46830400524320
C         2.55911964316462   19.56848669076678    2.71161102481637
C         3.93562904035323   19.34973755091002    2.24779280823832
C         4.90934257429481   20.35016499148769    2.19408521540255
H         4.68152189251889   21.36158772779796    2.48857897838371
C         6.17737511534967   20.03616133270966    1.74099793385262
H         6.94004617542516   20.79901392958952    1.69308595095325
C         6.45333992847839   18.73406758552437    1.34609887688275
H         7.43131844714853   18.45490027780220    0.98904292582785
C         5.43719046645672   17.79514617423434    1.41506954607158
H         5.58551486804539   16.76290796382924    1.11386361980486
C         0.75255849289538   15.82396761128861    1.70732127302635
C        -0.08285016320268   15.91010652786468    0.59665637235731
H         0.22713763206316   16.49123706394360   -0.27132916740497
C        -1.30241284465874   15.25003491640092    0.58181862069019
H        -1.94312511093729   15.32043868553822   -0.28621021602444
C        -1.69809547279120   14.49685875408183    1.67423732152311
H        -2.64733339016170   13.98052249309918    1.66036737051668
C        -0.87075666360541   14.39763934728381    2.78011199397846
H        -1.17362707604162   13.80153151976316    3.62974191650342
C         0.34938967456756   15.05636512768367    2.79722306852642
H         1.00204043727837   14.96330568383934    3.66493839853960

