57
CSD_code = HOVCEC | q = 1 | S = 0 | Stoichiometry = C24H26ClFN3RuS(1+) | MND = 9
Ru        1.30718592320700   11.02410606947811    2.14482132587822
Cl        0.44383119026427   11.19543642531677   -0.01439714364902
S        -0.41688836525823   12.51852452573280    2.72614729376112
F         4.40662974835938    5.58368127826667    0.44422335099489
N        -2.96478502107547   11.72901502172268    2.98813312438700
H        -3.61476764052491   10.97286146562140    3.17392148295364
N        -1.37072033740116   10.09039620623564    2.71340029382458
H        -2.10893313047100    9.38707980701727    2.74426425244613
N        -0.10327857358724    9.63874374657141    2.44308459606388
C        -3.09268807049127   14.08852071099134    2.30369489199119
H        -2.24053309022990   13.97843403446916    1.65469676477474
C        -3.75031961250397   15.30382341497853    2.38070977153307
H        -3.38761331006653   16.13764773069179    1.80085930930026
C        -4.87003414647019   15.44973356144318    3.18233171443600
H        -5.37546102742975   16.40072989359464    3.23809899277940
C        -5.34767875565138   14.36729174237105    3.90372906322879
H        -6.22520798866359   14.47048477383343    4.52186506331174
C        -4.70131822229281   13.14778525103178    3.83186713779712
H        -5.07559656819915   12.30198141507337    4.39032229672431
C        -3.56332227208850   13.01102786028739    3.04229122653072
C        -1.68507688157756   11.40979139746391    2.78852850168824
C         0.05297056784207    8.35616820787136    2.46946760432151
H        -0.76292953603646    7.72670680715564    2.82462799419635
C         1.23453847854382    7.67373213612158    1.97829255036326
C         1.83106260595668    8.07971740773167    0.77770913687343
H         1.41640774893249    8.91544395878382    0.22695934205472
C         2.88862741519520    7.36463478341738    0.25151585003656
H         3.33490615798789    7.63760338132660   -0.69140365043679
C         3.36606927509366    6.26068065381728    0.94219666104159
C         2.79011718745363    5.83546450141475    2.13005770357029
H         3.17819379757609    4.96237805095554    2.62950039206898
C         1.71128047437009    6.53352738176915    2.63293975526494
H         1.24102396945369    6.20522620531953    3.54729090874219
C         4.42367713756250   10.68225829851606    0.06718749048811
H         4.84837098597352    9.68273722541625    0.04647018662114
H         5.21816815993410   11.40819360753922   -0.10174915749435
H         3.71122034655883   10.78243016593934   -0.75172427019201
C         3.75104036212666   10.95724418409237    1.37053068963068
C         3.21906771370017   12.25272784495781    1.63704872790949
H         3.32244104038167   13.02539055074687    0.88164661784408
C         2.76045507538791   12.59380008835087    2.91455717657515
H         2.52040121671989   13.62912834982377    3.14053406176796
C         2.64993404529644   11.61634242859602    3.93751598646302
C         2.22623263765090   12.00220535272660    5.33406069705059
H         1.79725689638369   13.00953155592174    5.29468380997572
C         1.16091033764890   11.05359906619152    5.88710090029833
H         0.33794832761197   10.95490803224093    5.17691180504104
H         0.76519108831705   11.44837303153452    6.81837390566117
H         1.57280872304466   10.06809437478456    6.08794381709015
C         3.45896075595395   12.03387825031246    6.24377057468260
H         3.91535841515085   11.04894703979826    6.31050098600656
H         3.17210374884023   12.34973263272420    7.24289457563263
H         4.19965669534917   12.73207034020193    5.86165097553982
C         3.02670398848517   10.30052567055396    3.61210850171731
H         3.00094707427403    9.53218912033802    4.37589655817120
C         3.64714858365008    9.99635624845887    2.37547626004733
H         4.08020465378251    9.01475673235545    2.23266156460545

