24
CSD_code = HOVCIE | q = 0 | S = 0 | Stoichiometry = C9H10AuCl2NO | MND = 4
Au        3.74328607446195    1.29141860825502   10.56162755198489
Cl        2.53036078607471    2.93113647224276   11.44692352461772
Cl        3.80766547142753    0.37171084989807   12.59923508797931
N         3.69910839000136    2.08839464212367    8.67381822486318
C         3.31487035840099    3.47363121436464    8.49440147474936
H         2.42999044726509    3.66418406136936    9.10269683304152
H         3.08018032005984    3.65324422020501    7.44045893847623
C         4.08738820968234    1.41389334777326    7.64594018540280
H         4.01549221489178    1.91389229099479    6.67905461554700
O         4.79528277826993   -0.27153538263600    9.96154597506555
C         4.44107174079708    4.39915161735810    8.94364681400043
H         4.14792246673444    5.43112144960542    8.77498617605416
H         5.35338094272230    4.19280175617541    8.38699086494703
H         4.63465639162393    4.26478321252168   10.00449824354176
C         4.61624234486193    0.10208051680971    7.58529307457614
C         4.86536024492670   -0.44645149848315    6.30554793627525
H         4.59952730335870    0.13978696102967    5.43771329048857
C         5.41943996118757   -1.68623137573065    6.15148735440427
H         5.59509693270277   -2.09032499363924    5.16713050298611
C         5.76395439361759   -2.42908248042706    7.28670740060998
H         6.20684817898745   -3.40706022898298    7.17203537412731
C         5.54278198303043   -1.93026551077414    8.54182488801880
H         5.80268234355504   -2.48773706706230    9.42750909961601
C         4.95560972135455   -0.65884268299044    8.73672656862894

