27
CSD_code = HUCKIA | q = 0 | S = 0 | Stoichiometry = C12H8F2MoN2O2 | MND = 6
Mo        2.30064564426095    6.14052513283417    3.17841900592632
F         3.74544267952843    5.93858087935736    2.04678103882052
F         0.60871745119367    6.85236778502115    3.35594037676317
O         3.04576378190395    6.88103812742315    4.44413355400989
O         1.96727604171413    4.55863726261981    3.48191140462202
N         1.35309412726859    5.88268857318278    1.06889170029281
N         2.40429255299800    8.14920632317052    2.00819660977344
C         0.84563844687954    4.74972551299790    0.64302593412131
H         0.86973537199903    3.93301966658448    1.35319924610977
C         0.30988409207429    4.60501364537820   -0.64389460343410
H        -0.09580575830167    3.65325705146061   -0.94812849378213
C         0.31062366524190    5.68026320883940   -1.50016103918611
H        -0.09406943485908    5.60142091356538   -2.49891989084030
C         0.84982477829788    6.90345416873545   -1.06360482595928
C         1.36402359340235    6.94443595173841    0.25055233124483
C         1.96526266383578    9.30912091400799   -0.06655729831644
C         2.53230845311939   10.47148482431341    0.48558409460803
H         2.58323061792072   11.37380851165335   -0.10666338777988
C         3.01306335789400   10.43577038766107    1.77283055172585
H         3.45385467979569   11.30979241278176    2.22530320845093
C         2.92922858390404    9.24428560867428    2.50594379164087
H         3.29452785990488    9.16488914447788    3.52191652653970
C         1.92845347347202    8.16160972589289    0.75499869037733
C         0.90327939235983    8.08077362605107   -1.86576857063347
H         0.50589468764131    8.03145247465595   -2.86869769432827
C         1.43714234091030    9.23225079408300   -1.38852136212851
H         1.47376685564067   10.11932737283736   -2.00331089863801

