65
CSD_code = HUDGUK | q = 0 | S = 0 | Stoichiometry = C25H33Br2FeN3O | MND = 5
Fe       -1.50599991569418    6.23934758531873   12.77705199155604
Br       -3.11353878952468    6.79172046622326   11.27134289560339
Br       -1.48096064812731    4.16400605234404   13.58580089309773
N         0.03575127801322    5.98852463234123   11.53939349607934
N        -0.78239037952229    7.87121821724528   12.88348063307129
N        -2.66815489398527    7.02168668205405   14.33877832077145
O        -3.13298473045904    8.98706351792430   15.31931593000973
C         1.72959037919087    7.23239157241845   10.22161777588112
H         2.06519098126818    6.25181466747927    9.89325369589591
H         2.57440032068161    7.79266513234423   10.61724260472312
H         1.33849923516931    7.77440088653846    9.35981422587731
C         0.64665025658239    7.10470863185064   11.24487504241414
C         0.19947716452833    8.23222973009810   12.00820635095556
C         0.67600756750285    9.53949502549400   11.96237811902027
H         1.43999472798635    9.80428269352795   11.24961420467381
C         0.15663922491063   10.49041002207282   12.82697980023437
H         0.52023515447678   11.50500638092910   12.80198010297834
C        -0.85060915027349   10.12882142905312   13.71262184497220
H        -1.30052456728978   10.83779256910306   14.38782714297026
C        -1.30275336482275    8.81909934553043   13.70720266208371
C        -2.37921881944824    8.27332577104223   14.47999409642644
C        -4.15333576449487    8.10458822576681   15.79021835375311
H        -5.11827494581977    8.47836959993013   15.43875150935844
H        -4.13732406544206    8.11880361990773   16.88080907852448
C        -3.80166250136424    6.71868789758062   15.19345568675571
H        -4.61582298704227    6.34225136986421   14.56405452960105
C        -3.46286520657351    5.63657393800538   16.23743552891422
H        -3.22128800391142    4.72887277999811   15.67917370067239
C        -4.67519950162039    5.34266874527772   17.11601049543833
H        -4.94301949288450    6.19942963571322   17.73086287814438
H        -4.45319653284372    4.50809229222188   17.77601890896520
H        -5.53439387272309    5.07568608521497   16.50517367524651
C        -2.24077492351544    6.01075383285625   17.07167688303170
H        -1.37861003750273    6.16983700845231   16.42614920632598
H        -2.00430264673587    5.20106419473291   17.75657080631716
H        -2.41024369395729    6.91318087467809   17.65602122332253
C         0.55985688199062    4.76071639163892   11.06946386124447
C         1.55297888689412    4.13386625132148   11.84103152819551
C         2.06837565411974    2.92686780455508   11.39547426548563
H         2.83908447557519    2.43604546005858   11.96829387019539
C         1.60910770851953    2.33839933237012   10.23260760660957
H         2.01806817751407    1.39338755770959    9.90775395768728
C         0.62571660465968    2.96013389873663    9.49047359675066
H         0.26622358716884    2.49539182063031    8.58581369780291
C         0.09352888580874    4.17906154621660    9.88680321990740
C        -0.97947941523673    4.84227461287103    9.06051530383376
H        -1.19641361907626    5.82468126619729    9.48598345784644
C        -2.26116547737173    4.00934448368327    9.11861604555865
H        -2.12325145286413    3.04928174823265    8.62702789302854
H        -3.07337930910814    4.54321162691478    8.63244326133519
H        -2.54472569101924    3.82705232456546   10.15245900348313
C        -0.52943160012388    5.05368371062116    7.61410680313202
H         0.40483638876716    5.61140776158891    7.57790559475971
H        -1.28828129062973    5.61548612621506    7.07491022417800
H        -0.38145661425738    4.10534222600403    7.10378094330026
C         2.07843150269257    4.75207271196438   13.11835369662050
H         1.40889363514487    5.57075801618029   13.41609379351931
C         3.47760530784824    5.33209512661800   12.89100075810981
H         4.16471009736100    4.54773800088287   12.58144479623264
H         3.85288243886283    5.77511163236066   13.81129191396728
H         3.46533987548100    6.09824505485030   12.12017081645197
C         2.11475681238635    3.74214887005470   14.26733285884524
H         1.15497032886002    3.24388362778841   14.36803375390790
H         2.33921173034693    4.25539124896743   15.20007579375918
H         2.88121863495649    2.98944864907178   14.10488339058502

