65
CSD_code = HUPFAA | q = 0 | S = 0 | Stoichiometry = C34H26Cl2P2Pd | MND = 4
Pd        0.00010423751428   10.47606380299465    5.47019357519351
Cl        0.22328772965752   12.02895818103216    3.82551087470095
P         0.37512728565095    8.91232922440757    3.94635171349414
C        -0.11671687003809    7.17132704319569    4.20664119515887
C        -0.39787126063972    6.43406091778814    3.07596445814349
H        -0.50617473946260    6.94137325270481    2.12739470094776
C        -0.52375982410729    5.04230826361786    3.11478221904906
H        -0.76100973828006    4.50281496240707    2.21016607880173
C        -0.27677404636789    4.38123645250271    4.28291375843739
H        -0.28728785777191    3.30179597910638    4.32126105041652
C        -0.00004513946732    5.09194473837207    5.46969922273385
C        -0.00013889207929    6.51867169874988    5.46971399987896
C        -0.18087995029254    9.29748551179933    2.26823904606518
C         0.65232394026628    9.38585971906894    1.16192076215460
H         1.70622528342931    9.16519819127015    1.25665428248251
C         0.12350959514472    9.77897393663302   -0.05605783402129
H         0.76902367394930    9.85712681283827   -0.91861719615935
C        -1.22168489357934   10.08593757181933   -0.16815729582302
H        -1.62385482662176   10.40127342095952   -1.11949399011213
C        -2.05157590905102   10.01098484336851    0.94124016653719
H        -3.09621330229902   10.27056660418105    0.85419150958447
C        -1.53174714650707    9.62456254790612    2.15951361692258
H        -2.15369780781549    9.58953523637975    3.05075699506867
C         2.18500648490936    8.72398676222728    3.90050646882867
C         2.94711083649875    9.66463576925035    4.59321677145917
H         2.45082597137168   10.49286170517667    5.12103906762418
C         4.32758555655534    9.56893860016191    4.59337450288715
H         4.91766575350879   10.30182369207941    5.12318286268963
C         4.95105936872159    8.53669969620127    3.91085312410477
H         6.02854237860795    8.46432834530992    3.90963274577216
C         4.19556095458077    7.59520593999498    3.22954925379876
H         4.68429650396481    6.78978858669676    2.70094627364428
C         2.81543981735033    7.68271372358885    3.22430657387663
H         2.22355670039426    6.94443900902021    2.69986394508858
Cl       -0.22265271136003   12.02988307634420    7.11369074400265
P        -0.37516350992053    8.91249069701869    6.99300421161550
C         0.11635246819229    7.17133806270286    6.73278961095694
C         0.39769219456657    6.43408334313613    7.86344436252250
H         0.50601907338232    6.94134914197531    8.81204226365487
C         0.52379954836158    5.04234313141004    7.82457795051487
H         0.76122503379955    4.50285248812432    8.72915301887909
C         0.27688790559295    4.38124621307983    6.65644856314554
H         0.28760528544038    3.30180817920083    6.61806390943403
C         0.18089922377772    9.29758376727780    8.67114499554123
C        -0.65235701290086    9.38588305481247    9.77747130145902
H        -1.70625585492914    9.16520110409764    9.68267902014697
C        -0.12360325250805    9.77890175761017   10.99552227247746
H        -0.76917023840090    9.85701185677949   11.85805625264098
C         1.22157759967690   10.08592406255230   11.10768376737883
H         1.62370162410737   10.40123696986708   12.05905331686466
C         2.05152409443878   10.01099889892998    9.99832217842583
H         3.09614604146756   10.27062588508353   10.08543899092908
C         1.53177995184936    9.62458569596086    8.77999536718293
H         2.15379380606739    9.58959306199030    7.88881147336674
C        -2.18504856790847    8.72436062271912    7.03917289859494
C        -2.94721302091588    9.66498214411092    6.34651982738983
H        -2.45098349874175   10.49341483474680    5.81900509252444
C        -4.32767522185221    9.56896418463783    6.34616730439034
H        -4.91788621880088   10.30170801259483    5.81629036554053
C        -4.95103011032876    8.53655633293453    7.02853089291889
H        -6.02848946870430    8.46383969757386    7.02941236888140
C        -4.19547647436271    7.59527145891300    7.71008586875151
H        -4.68411321138730    6.78981982151712    8.23874452784733
C        -2.81537695496886    7.68303144997912    7.71543085564912
H        -2.22332839042561    6.94490024950986    8.23989192694215

