59
CSD_code = HURKOV | q = 0 | S = 0 | Stoichiometry = C26H27Cl2N2PPd | MND = 4
Pd        2.24243091068080    3.69090482125562    5.44544796939159
Cl        1.13234840493249    4.64447642389121    3.71945883766259
Cl        3.59185241127429    2.63414681358595    4.02502930658713
P         3.53043708510818    3.50334868643411    7.31271069562717
N         1.00464811432818    4.66281720305500    6.75162037401153
N         1.48247833640943    5.75597468959350    7.36370055970426
C         0.77260108203746    7.45589139695660    9.07515434538659
H         0.41991095221684    8.36288393204570    8.58359355439136
H         1.82640439127518    7.58291803837045    9.31376422841240
H         0.20875989036253    7.33649447220991    9.99741829369700
C         0.55552662787917    6.26810673645671    8.21041238176698
C        -0.54843183318293    5.45118176329833    8.11686084483219
H        -1.46441524418362    5.56852516085610    8.65674340946553
C        -0.22820234218734    4.45110644233698    7.18300339183901
C        -1.11971638591765    3.34625967319986    6.68122540793124
C        -1.91472690807852    3.90102792309430    5.49027281605319
H        -2.50784162747980    4.76169230505453    5.79145939545679
H        -2.58210019673278    3.13688693003191    5.10014446919054
H        -1.23005940995960    4.20771694183320    4.70128334537757
C        -2.07469145565988    2.91932623154870    7.80298250693164
H        -1.51623415489913    2.62636127558324    8.69023270094170
H        -2.67239768719737    2.07295326380815    7.47423450011893
H        -2.75300746237718    3.72547477783950    8.06803359756391
C        -0.31498487726671    2.12162828369802    6.22520789832933
H         0.30173697428754    2.35203054165399    5.33620931002885
H        -1.00125078816149    1.32572808363482    5.94368165859771
H         0.31756261492518    1.75699516235154    7.03672680698878
C         2.80075963128090    6.20666245345343    7.14060601800542
C         3.02948184026745    7.55119932057242    6.88378649722760
H         2.19241842534264    8.22725988374418    6.80551970960957
C         4.32114157472452    8.01104205914613    6.68623584179507
H         4.48810685882113    9.05546840998172    6.47322347847907
C         5.38633756464565    7.12959567518708    6.74298780354881
H         6.39253136921479    7.48439896343023    6.58097975132823
C         5.16429437291695    5.78477336182883    6.98797596792776
H         5.99596537789754    5.09503364053354    7.01307918670821
C         3.87758258499283    5.30101420940923    7.20031558478821
C         2.68278828440425    3.35248541581975    8.92221117061995
C         2.62249564142370    4.37043438854903    9.86687152175764
H         3.15349623069662    5.29777205196070    9.69750813312111
C         1.89537413938332    4.19149728988490   11.03055519135773
H         1.84793614491498    4.98716206745524   11.75968760337296
C         1.23188283252450    2.99833092371255   11.26221478757996
H         0.65871151273854    2.86734017980556   12.16774803455246
C         1.31087563468052    1.96961692638937   10.33652020328429
H         0.80583509604881    1.03341250754168   10.52300801112238
C         2.03263192876534    2.14722659824959    9.17167474515661
H         2.10973000885824    1.35239711345138    8.43958787952168
C         5.16663703502763    2.78243701022946    7.64288698303720
C         5.69850481797847    2.73416415494226    8.92874430434482
H         5.13159855286361    3.11685953403252    9.76608538813122
C         6.95444810623166    2.19204226521687    9.12885196080010
H         7.36942136826875    2.15487574082444   10.12562630634076
C         7.67915938098786    1.69624810550155    8.05572904163038
H         8.65947671676077    1.27369155492797    8.22002477694238
C         7.14591246313967    1.73629188788463    6.77770424843587
H         7.70749391540079    1.34398021629136    5.94334373508702
C         5.88861023678091    2.27469818188891    6.56575844450433
H         5.45132292958797    2.30182993447675    5.57493508359494

