69
CSD_code = HUTTOF | q = 0 | S = 0 | Stoichiometry = C26H32Cl4N4O2Pt | MND = 6
C         2.01262201462828    2.29524902500197   -0.33169497349711
C         2.39284541152240    2.52515608450808    1.07694944686329
H         2.97344917907981    1.66250646999188    1.41639345630981
H         1.48644133659357    2.54457314437136    1.68811564273048
C         3.19501736741232    3.81032419519469    1.24099792262672
H         4.11692308798738    3.77235596816856    0.66657102720980
H         3.44360588786455    3.94383001047366    2.28959760399987
H         2.61869084403493    4.67014314823943    0.90976436466031
C         1.29278823742970    1.71341804105947   -2.25373132333566
C         0.58499541413126    1.04775559158267   -3.34974463492156
C         1.14584855764493   -0.07446373754269   -3.95812503636147
C         0.41960344899548   -0.71413391624420   -4.95262630621409
H         0.83270660687126   -1.60090736985006   -5.41084153829971
C        -0.81530422094541   -0.24013317789406   -5.36521818976194
C        -1.29811853292800    0.94070130768150   -4.81395988179685
H        -2.23474687819437    1.34648323314386   -5.16755524425718
C        -0.60814308313155    1.60809196439785   -3.81777355730898
C         2.53378236708789   -0.52937613824015   -3.62386730148128
H         2.64485681035167   -1.59367164586433   -3.81362126316344
H         2.79083085417969   -0.33687404070862   -2.58527660561559
H         3.24395651089398    0.01052293754059   -4.25249207521843
C        -1.60145920586891   -0.94979844875250   -6.42482723608414
H        -1.57290568505521   -0.38272613276277   -7.35516039930645
H        -2.64337548473904   -1.04566647799214   -6.12571407609157
H        -1.19588490191031   -1.94021008733802   -6.61373340945440
C        -1.08654406319773    2.92815136141928   -3.29516062542615
H        -0.40800121185542    3.71585131503807   -3.62480119838244
H        -1.11712839494262    2.94311999381498   -2.20752781556706
H        -2.08386309559467    3.14636932579042   -3.66699401701540
N         1.19516516407734    1.41896685693572   -0.90243471508015
N         2.10566458209312    2.69600691653994   -2.46011033026410
O         2.56457546328538    3.06847688308404   -1.23881604263529
Cl        1.92387788518797   -0.55106795001434    1.26623410278500
Cl        0.71842368255790   -1.77453168835902   -1.39671767237554
Pt       -0.00026201547232    0.00010663226631   -0.00046088155386
N        -1.19505837246996   -1.41884003806844    0.90239999389767
C        -2.01261987655090   -2.29502455653638    0.33166772969287
C        -2.39288706037716   -2.52485002967585   -1.07697849209364
H        -2.97372848533879   -1.66229793815206   -1.41627864133685
H        -1.48648852647006   -2.54397663636737   -1.68817488111844
C        -3.19486709699691   -3.81015544247180   -1.24108362087178
H        -4.11682390994208   -3.77236084507895   -0.66671656358804
H        -3.44338701198867   -3.94371532661736   -2.28969267749436
H        -2.61842656175944   -4.66988789723829   -0.90981819420545
O        -2.56463204921476   -3.06823995971946    1.23876551527750
N        -2.10569419195720   -2.69585143855276    2.46006449705685
C        -1.29274354049138   -1.71331454041124    2.25369747343833
C        -0.58492974348280   -1.04773107525975    3.34973216323352
C        -1.14572083923500    0.07447775375173    3.95818569160681
C        -0.41945061821301    0.71400744273869    4.95275749701705
H        -0.83253107869850    1.60073089319091    5.41108860746294
C         0.81545473433223    0.23992709952913    5.36526436966199
C         1.29821953982202   -0.94087451591825    4.81388914602075
H         2.23485504049069   -1.34670469190297    5.16739978900625
C         0.60818183703744   -1.60817217081422    3.81769294455821
C         1.08648653674204   -2.92821082721730    3.29494382025810
H         0.40787805001801   -3.71589553361706    3.62448498613792
H         1.11708426334608   -2.94306365835866    2.20731132637127
H         2.08378640399491   -3.14653306923066    3.66675989069090
C         1.60168169912434    0.94948541792181    6.42488418186354
H         1.57329214329357    0.38226082585086    7.35512739896396
H         2.64354909211255    1.04547859055214    6.12564408936180
H         1.19605346136079    1.93983569739383    6.61399171314257
C        -2.53365099330775    0.52945800398243    3.62400343218862
H        -2.64468952912079    1.59375107656027    3.81377137669956
H        -2.79078303253453    0.33693582759817    2.58543617834409
H        -3.24380594597321   -0.01039650826918    4.25268999284715
Cl       -1.92438831835504    0.55140022057978   -1.26645952586262
Cl       -0.72014995927184    1.77374825514374    1.39791157505171

