33
CSD_code = HUYNAR | q = 0 | S = 0 | Stoichiometry = C13H13IN2O2PdS | MND = 4
I        -0.97779376528535    7.36437681974558   14.28823611951714
Pd       -1.28773589967758    8.58767484096162   16.49825696114097
S        -1.65893590524550    9.68909466248890   18.54518233243812
N         0.35506551077771    7.58495359027408   17.66046542255815
C        -3.60912545816095   11.54887041599708   14.62132515840226
H        -3.45921983347773   12.51916928352147   14.17248566520973
C         0.61545925354700    8.08992638007692   18.87039957998191
C         0.89844658224000    6.41953669013261   17.31848011062420
H         0.66741531919121    6.05246360482376   16.32550850609523
C        -4.90214867530989   11.04425618775069   14.73229313022306
C        -2.78573164194580    9.55022507768545   15.66093807608583
C        -4.07731741010010    9.03963906249577   15.74374947456202
H        -4.24798293291790    8.04437145274680   16.15101529905029
C        -2.54968107151549   10.79548367550952   15.08671158692687
H        -1.53064285201512   11.16836974197900   14.99237375162694
C         0.02438188579406    9.42488185122598   19.21549670740615
H         0.62135162112614   10.22621028644822   18.76803620345223
H        -0.01323566301095    9.57582203874581   20.29595506000081
C        -2.53709143549635    8.29165286814997   19.31914784580070
H        -2.20348322907199    7.33657630861092   18.90563944161313
H        -3.59287850367955    8.43837796507596   19.10364170420819
H        -2.37475471845338    8.32290608038446   20.39393550726054
O        -7.12600323885839   11.37612500404858   14.40717182914682
O        -5.76687967548314   12.91897539387216   13.78343413713932
N        -6.00757718127089   11.83285395720347   14.27238595019001
C         1.98585101970835    6.21130994697114   19.42966218400719
H         2.61713425614737    5.67882874246422   20.12435110098452
C         1.72169724630206    5.70085508234738   18.16931396129974
H         2.13965147048565    4.76162466017369   17.84649606673211
C        -5.14226195997266    9.78816398449518   15.28228571807248
H        -6.15609200554230    9.42064731128531   15.33361419657672
C         1.42144277957004    7.42504671985078   19.78594439020338
H         1.60677611159979    7.85943031245781   20.75626682146254

