53
CSD_code = HUYYOQ | q = 0 | S = 0 | Stoichiometry = C22H24BrN2O3Re | MND = 6
Re        6.41937304101910    4.83196343159487   12.07685831222761
Br        7.39841749688603    3.62119985039702   13.98373844531049
O         5.98616648842368    3.49782801100484   11.20839085836701
C         2.61345806317704    5.88528278744117   14.04308910112473
H         2.50510058261805    6.89911406527845   14.42322812474810
H         2.86822237250188    5.21415989833681   14.85921695256515
H         1.66546516487835    5.57706022965897   13.60671037555379
C         3.70110684400415    5.83412641980117   12.99158473528131
C         3.55894976754106    6.67684280027267   11.89675635842045
H         2.67897049045059    7.30270641288418   11.90029147390593
C         4.37161200814406    6.76805221853840   10.75889762391411
C         3.87151243189533    7.65279263565954    9.64428609855957
H         3.59276650955662    7.03774019399890    8.78931388511775
H         4.65496926021300    8.33449831693489    9.31651735175496
H         3.00536544000372    8.22680155880361    9.95933049641845
O         4.63082966859116    5.01154304817267   13.22156200130039
N         5.50973921528559    6.14424605127804   10.58953426042394
C         6.16153034527040    6.21727743814486    9.34527187247058
C         5.82306278386396    5.30907186918806    8.34395608276894
H         5.06754995024704    4.56528162949980    8.54958637553573
C         6.47262194735305    5.34976393834278    7.12372791205370
H         6.20655765368213    4.64149585308162    6.35319981977792
C         7.46676424959527    6.28720176449549    6.89228521709371
H         7.97631558955376    6.31302240564889    5.94101966632082
C         7.80597024225407    7.18941994820121    7.88629887317693
H         8.57946561806651    7.92270003002688    7.71087074868047
C         7.15275709433308    7.16422708437623    9.10518693762089
H         7.40811998321495    7.87577335959409    9.87765407347768
C         7.51201492993763    8.62748670371702   13.66826944384315
H         7.58315960689431    8.35459777647417   14.72113107738778
H         6.50674145699363    9.01061065800354   13.49530092262875
H         8.24308601655771    9.39873846030572   13.44763056049430
C         7.73824368071464    7.39952431582360   12.83023519132037
C         8.85931031427482    7.26623402315401   12.04282705906625
H         9.57284196914260    8.07388327577378   12.02669740372380
C         9.19572522342314    6.08602703184722   11.32802768651316
C        10.54315192920803    6.05576689120564   10.66392122391669
H        10.48264072797245    5.54361213143591    9.70576504293506
H        11.24940311556382    5.51128666905276   11.28936866162528
H        10.91857431897348    7.06424739360362   10.51575869859158
O         6.85167074182806    6.47508193869531   12.90129655069139
N         8.41690747527502    5.04343247637919   11.25174607622958
C         8.93470292738296    3.83493064869284   10.71090323004399
C         8.56904261787257    3.41297577140240    9.43819496931383
H         7.90181685873327    4.02098321727099    8.84955597801378
C         9.05374603687200    2.21470525459438    8.94666773516822
H         8.76329021651656    1.89076112675984    7.95845438424988
C         9.89770931517077    1.43175335836731    9.71606919971613
H        10.26479013631015    0.49230128186404    9.33117848041102
C        10.25874325863789    1.85195361541227   10.98475439085288
H        10.90388464900349    1.24108296551445   11.59724537551591
C         9.78851667123999    3.05264057918598   11.48367590375512
H        10.04444550275468    3.36618918468128   12.48406072003879

