67
CSD_code = IBALAA | q = 0 | S = 0 | Stoichiometry = C28H24Cl2N12Pd | MND = 4
Pd        5.77821056735143    0.16064698124954   13.81706020358705
Cl        5.30289822582090    1.78387977843634   12.28064461513936
Cl        6.25626176682442   -1.46366319195720   15.35483768607364
C         3.70028882571700    1.25270582952898   15.43628559418369
H         4.50969860794502    1.93295175454860   15.70146438393786
C         2.44612732189630    1.37375969425736   15.99867411745720
H         2.24980626432254    2.16226523721000   16.70784778871253
C         1.43166310473667    0.48851105072342   15.62546524828593
C         1.75772904817620   -0.48746002501553   14.68037451484211
H         1.02238248578712   -1.21107700812605   14.36599690768792
C         3.03798469091240   -0.54305674639704   14.16886201517027
H         3.32534745551369   -1.29948069328638   13.43848444877428
C         0.08742413981653    0.57726392412505   16.20174246949043
C        -0.08666892330728    0.90354834695315   17.54759786361047
H         0.77858549507817    1.06797194352617   18.17277617158533
C        -1.35066373524298    0.98078137476258   18.09308451059979
H        -1.49441987993580    1.22438025174521   19.13375985685445
C        -2.47270778707717    0.74045119399910   17.30360442690001
C        -2.30498388763837    0.41849177264135   15.95887914609227
H        -3.18232593583870    0.23971638558302   15.35776731819456
C        -1.04024828399995    0.33450749049899   15.41599657595469
H        -0.92057589525614    0.10669564615014   14.36701248181488
C        -3.81734761146549    0.82504342852324   17.88278859171288
C        -5.16483824532165    1.26795903132606   19.62885811763755
C        -6.04683398144740    0.60548125791909   17.67816341313232
C         8.57617333438805    0.68077179833883   13.64703599781570
H         8.32604590846828    1.32011958329092   14.49380049044847
C         9.86998079933693    0.58245318616004   13.17780033373355
H        10.65973736681265    1.13568050930548   13.66094709444276
C        10.15229006586088   -0.25625038156140   12.09664443880129
C         9.07949688281617   -0.95826846183252   11.54144140397756
H         9.23098151677627   -1.60576300578097   10.69230944036770
C         7.81392260379203   -0.80113830091500   12.06822989673914
H         6.95593719456290   -1.32987343595032   11.65268060914593
C        11.51275700806580   -0.39425493768923   11.57021512759455
C        12.36238650592808    0.71084924401822   11.50066220770804
H        12.00277429066424    1.68055831598190   11.81199669291277
C        13.64242890940504    0.58151901671695   11.00465895423539
H        14.30352724888274    1.43113516300939   10.94041143439637
C        14.10666564203311   -0.65847083575252   10.57224808124355
C        13.26380955840668   -1.76517209986568   10.64169165617006
H        13.63736971814555   -2.72022132627930   10.30796653847742
C        11.98156346263273   -1.63349020876389   11.13147838429784
H        11.34297102939594   -2.50152183267805   11.20427790341100
C        15.47003404032027   -0.79731726159780   10.05009481164246
C        17.48976922970418    0.09013122125710    9.60995573053510
C        17.07842226488132   -2.05410023056954    9.10462873860640
N         3.99200122234059    0.31033994672748   14.54014197936633
N        -4.84450356552278    0.51159652279505   17.10238282206848
N        -6.26605967443020    0.97746954856658   18.93811906766836
N        -3.91876012343860    1.20907195069438   19.14949729609775
N        -7.11787778236012    0.32374770415709   16.91592626453864
H        -8.02409032202211    0.29417798729626   17.34510621691962
H        -6.97050722274845   -0.04861798110376   15.99620638263965
N        -5.31302862390979    1.62846188348142   20.91522966887058
H        -6.23819122389182    1.76241005336349   21.27882225415064
H        -4.50638194555782    1.93176049645789   21.42841636196407
N         7.56678686398976    0.00193610384237   13.10265732541083
N        16.25836008565404    0.26974998049630   10.09703313339472
N        17.95385461856224   -1.05024411674198    9.10188463193639
N        15.82623941813702   -1.98085136081703    9.56563483987892
N        18.31417454844121    1.15212219538318    9.61345636324212
H        19.27134989320502    1.02325431687654    9.34232320102497
H        18.01779643052586    1.99115773079810   10.07652624116631
N        17.49110842232277   -3.24180936122901    8.62869813278776
H        16.82151645666992   -3.98264546147946    8.53361082747772
H        18.39197410940339   -3.30153856728609    8.19142255529120

