25
CSD_code = IBALII | q = 0 | S = 0 | Stoichiometry = C8H8Cl2N6Pd | MND = 4
Pd        3.84392375329005    3.71298363868651    8.79928605648098
Cl        3.07027104036956    4.60318021803224   10.68403264578580
Cl        2.80022047175058    1.83804541451746    9.38079457614390
N         4.54553497881724    6.99668192690849    9.70505901939794
H         4.70352235452310    7.92702080333176   10.05067152067097
H         3.97510225743869    6.29955766369000   10.21883029429209
C         5.65442237867194    2.12151001751164    4.67433810195163
H         6.08149901773709    1.80376400156815    3.73578172030190
N         4.90332681436006    5.39185322799263    8.07901218213431
C         5.29879776205679    3.77594267813621    6.36377177201446
N         4.54856748362916    2.93275354269594    7.09585828500759
N         5.84430457415359    7.55860212223279    7.91476200555719
C         5.10464321557617    6.65484748020857    8.55958275592544
N         7.13504458303913    8.06835631467610    6.09815287469782
H         7.26696133750424    8.98573843227910    6.48271204847208
H         7.55313801253350    7.80285901909557    5.22575868773602
C         6.38667498518880    7.18308704860905    6.76479591713232
C         5.86552416578656    3.40222341868998    5.14908763730522
H         6.45424201843798    4.13037208949350    4.61593466370964
C         4.87973772631640    1.25568454058047    5.43598213920260
H         4.68731496249523    0.24672552446898    5.10830491396044
C         5.49568529902900    5.12112383506317    6.90858684394793
N         6.23647505548126    5.96470293320953    6.21643953952517
C         4.34739428207184    1.69766435923023    6.63437378681145
H         3.73757146974117    1.05181974909221    7.25669001183533

