36
CSD_code = IBUWEH | q = 0 | S = 0 | Stoichiometry = C13H16Cl3N3W | MND = 6
W         5.66769707426837    3.33793842124967   -3.47592621011659
Cl        4.13721200655431    1.62541928007860   -4.10551954360223
Cl        5.62639221399263    4.08421807827459   -5.62217472263397
Cl        7.45914245738168    4.81857129150176   -2.94561463767459
N         6.07002297174879    2.27602418170949   -1.82805548014770
N         7.43468669930876    1.99689309274475   -4.16625338310605
N         4.41756997228643    4.40261097509094   -2.80804224184960
C         5.32438450883569    1.91835514513467   -0.73138229442104
H         4.39312170638602    2.42276519672441   -0.53117224970202
C         5.94122600682169    0.90821392802188   -0.05100853252018
H         5.59238683569983    0.42100967035741    0.83756173085787
C         7.14140489924632    0.60946153032456   -0.75109864074606
H         7.86740712301416   -0.13318492520820   -0.48470187556387
C         7.18459085016495    1.45712439163195   -1.82169645030926
C         8.17688443932692    1.69763331194402   -2.91472809264418
H         8.84027398017317    0.83221549350177   -3.04719295158320
H         8.79438327475577    2.57191753291707   -2.66270688550819
C         8.36150161639450    2.60403867359944   -5.13621473154890
H         8.70117199232389    3.57634288019957   -4.77463111103566
H         7.85437396411031    2.74486259634573   -6.09110393798197
H         9.23263008983008    1.95686198565521   -5.29248049829195
C         6.97488867098299    0.71815766293978   -4.73479393716657
H         6.35393996784614    0.90094236411600   -5.61410707156636
H         6.38727043353264    0.16639310191510   -3.99769337002381
H         7.83265340347981    0.10099486079248   -5.03114539684272
C         3.52288234826015    5.26277142764519   -2.32206823408068
C         3.84735265833480    6.62793411738705   -2.19950869691083
H         4.83524605685267    6.94774258419574   -2.50334043916228
C         2.91991929077256    7.51579140504801   -1.70053159617135
H         3.17793136660934    8.56072962471373   -1.60848666918119
C         1.65968675142195    7.07763408221119   -1.31854090221164
H         0.93827694696379    7.78022199131354   -0.92980376092761
C         1.32769823123526    5.73574569877397   -1.43851792423833
H         0.34586376672616    5.39492023123553   -1.14382661055905
C         2.24189899430538    4.82998803300344   -1.93075786836741
H         2.00192643005908    3.78124008290010   -2.03683478244748

