31
CSD_code = IBUXOS | q = 0 | S = 0 | Stoichiometry = C10H12Cl2N2O2PdS2 | MND = 4
Pd        2.01166945850216    5.28682431981803    7.14746654893194
S         4.30641389897708    5.84379921773756    6.85795717166990
S         2.71949716220210    3.94434627100332    8.94374819004526
Cl       -0.13172443583738    4.64867391760612    7.32887412970158
Cl        1.42157878498626    6.27521489017921    5.22328464215083
O         2.75416798356657    7.74810165740407    8.25860798558971
O         1.91837013938224    6.39052498792984   10.40008014300718
N         4.70552620192756    4.80953216067430   11.92373555486714
N         6.69280521274494    7.24007255798366    9.28565876173245
C         4.04277668457714    4.99774388372154    9.46617182241178
C         4.71356335880316    5.78909263261833    8.59014254228054
C         4.40468446223978    7.64367710031005    6.55545085169316
H         5.30090663758567    7.99304515502722    7.06709656930105
H         4.51835033371079    7.75532683387612    5.47849751044596
C         3.14879844347066    8.36228827995969    7.04516730960093
H         3.37450398077279    9.42563722871257    7.21342337077239
H         2.34903050113600    8.26814270719342    6.29712899064864
C         1.47605880475243    8.12448671984681    8.75402208015579
H         0.68603681050670    7.59522434023573    8.18766145028493
H         1.32890708487040    9.20743948866322    8.66632528181656
C         1.48666340868213    7.72164226986071   10.23456065233997
H         2.23157332744087    8.32949589866910   10.75679939165049
H         0.50098221111853    7.88117888039629   10.68424276139851
C         0.90049702166966    5.40545663352341   10.41765861042417
H         0.22713225208702    5.51320907656220    9.55489470267110
H         0.31605971672508    5.48025519853450   11.34743033653251
C         1.58325400752041    4.04822643562983   10.36553772566995
H         0.85257912950006    3.25562785190886   10.21161060432509
H         2.17437324893995    3.85938152274341   11.26122615232235
C         5.80236395320088    6.57593298858312    8.99837063027063
C         4.42220021423784    4.91299889308771   10.81756752528801

