63
CSD_code = ICEQOW | q = 0 | S = 0 | Stoichiometry = C33H26Cl2OTi | MND = 8
Ti       -5.61336774056944    7.18941911000948   30.82817112921953
Cl       -6.69517160276125    6.73049031892809   32.66988618757210
Cl       -6.12277080303942    5.27668798996198   29.91702068754517
O        -4.05024790980625    6.97446729274987   31.32668841801073
C        -5.13646091984515    9.10532554756407   29.65146895242257
C        -5.93218812163138    8.28583528853519   28.81645450894555
C        -7.21110615928358    8.17091443479138   29.40805918472795
C        -7.20725925741376    8.90666309775225   30.60441493078392
C        -5.92245138975769    9.47489052935025   30.76994495953093
C        -2.80482397890159    6.77932141295059   31.73933901512319
C        -2.24429676570867    7.65720374662021   32.67829637939566
C        -0.94279396243134    7.44800468354885   33.12583146505675
C        -0.22204957046318    6.37671883650989   32.61727729063418
C        -0.75413029932155    5.50644501599067   31.67332372386824
C        -2.05767584029939    5.70545624341989   31.22618277114074
C        -3.09055222865254    8.77678744938144   33.15216023362793
C        -2.90067612406494   10.04615134331922   32.66441258789450
C        -3.70754308056494   11.10919403191890   33.09663315859350
C        -4.70639563989877   10.89206692232936   34.00472177818756
C        -4.93562520671575    9.60255548245481   34.53025409336287
C        -5.94565752371626    9.35472941597920   35.48283519527335
C        -6.11920947318360    8.10577591976587   36.00830579948197
C        -5.29316614076478    7.04637574938691   35.60484926582519
C        -4.31696257030730    7.24652207652984   34.66924315729373
C        -4.11536130379660    8.52448426353338   34.10319403550379
C        -0.34307075403601    8.37093615618806   34.14313134289620
C         0.07430731327565    4.37458863235482   31.14364154204259
C        -2.71181474248106    4.84321677947132   30.21748107087332
C        -3.02807227982141    3.54024313151821   30.51400470046658
C        -3.66831283205863    2.72187077243997   29.57379657314342
C        -3.98759533425751    3.20903877801223   28.33850228109358
C        -3.68655102076732    4.54244288260252   27.99224230752484
C        -4.01072178263884    5.06837093854338   26.72455417737684
C        -3.70380456583172    6.35975416454091   26.40029371685400
C        -3.05205554540383    7.18378089136711   27.33091803678944
C        -2.73182114023454    6.70897300021192   28.57397091941006
C        -3.04429913740832    5.38099122417648   28.94272230892851
H        -4.14881554043927    9.48577281427461   29.41862958119802
H        -5.65581990866188    7.91133249336027   27.83912390458646
H        -8.06769855764071    7.67779148719713   28.96464906171992
H        -8.05950386234256    9.08138936535165   31.24905502080158
H        -5.64196299608309   10.18384789757976   31.53816004172935
H         0.78898831715930    6.21496586069139   32.96289377823229
H        -2.11736554197138   10.23108833056735   31.94202942652223
H        -3.53277807033121   12.09948800913589   32.70096580879767
H        -5.33284492940109   11.70739680112034   34.33826542305572
H        -6.57682698468187   10.17564400718738   35.79298342373490
H        -6.89442531042056    7.92441354904722   36.73797035152319
H        -5.44232371917731    6.06598531377064   36.03177688286922
H        -3.68472751860442    6.42690582659520   34.35321668761812
H        -1.04375212874115    8.54646809442698   34.95739837799746
H        -0.11382652501759    9.33581502013991   33.69222660340757
H         0.57522068935765    7.95344955484507   34.54736561553565
H        -0.07175091715332    3.48350510609791   31.75384565454400
H         1.13078327266841    4.63058812099681   31.17138558318754
H        -0.20896753869823    4.13186999045706   30.12234106021746
H        -2.79167371602610    3.14451349382052   31.49158332762070
H        -3.91275092941946    1.70444532161494   29.84095709906738
H        -4.48768573803589    2.58513536426747   27.61232449372866
H        -4.50734435444087    4.42615030007904   26.01150717799691
H        -3.95319621573567    6.75374250692460   25.42542776532959
H        -2.79789806104276    8.19730581827864   27.05322149089226
H        -2.20029778055746    7.34059599747232   29.27546847169003

