35
CSD_code = ICERIR | q = 0 | S = 0 | Stoichiometry = C15H16Cl2OTi | MND = 8
Ti        3.21203257587123    0.85172536426483   10.61569378648012
Cl        2.40877747496621    0.43791678014232   12.59780587947209
Cl        4.16030187977164   -1.09375632094915   10.34901421178795
O         4.54690682495321    1.79215460028493   10.92836911202247
C         2.52454651261273    0.84290796396394    8.40674930219031
C         1.47796988126294    0.29319377052267    9.18463806846117
C         0.99587285961075    1.30151786120338   10.03985355529183
C         1.75523956648532    2.47416737996592    9.81111688531651
C         2.68810767791057    2.19479127346032    8.78514551196204
C         5.37344778591821    2.80643647183476   10.69692098983124
C         5.25802986761616    3.99243223755962   11.43949423985391
C         6.10007403339778    5.05160320463475   11.13903398572014
C         7.04138422585319    4.94273069050338   10.13003810870995
C         7.16368704422055    3.76214772075160    9.41512204424090
C         6.33905545574197    2.68210006054841    9.68259735618576
C         4.29258300541839    4.02959211590933   12.59652652962029
C         5.04493545508374    3.54783385706150   13.81017134851080
C         5.15870829714550    2.27425301921731   14.13550294875545
C         6.43583931802056    1.37813264066238    8.94938250533930
H         3.02135331922075    0.34613161869146    7.58216365423507
H         1.04979668251542   -0.69420248050370    9.05775665223314
H         0.13388520128270    1.22614781879724   10.69183814898384
H         1.55677744932360    3.45073138222559   10.23768734771077
H         3.33289106805019    2.92148365446563    8.30415564448879
H         6.01714983212645    5.96831448573287   11.70400390509460
H         7.68966729558643    5.77620541026850    9.90661143542260
H         7.91134455339108    3.67618909774658    8.64043768751258
H         5.55388178731035    4.31367547947659   14.38063362158740
H         3.44686350790553    3.35548832324212   12.39442243603837
H         3.92551481633319    5.04452938829943   12.75322887492050
H         4.66875418170553    1.49557113763506   13.56452787863484
H         5.73441088821867    1.95556191738585   14.98798145011688
H         7.27330536915996    1.38441816856425    8.25700960847393
H         5.51365608434514    1.18126043713986    8.39200156311678
H         6.56654822165257    0.55921346930398    9.66206372168111

