49
CSD_code = IDILOZ | q = 0 | S = 0 | Stoichiometry = C20H23Br2FeN2P | MND = 5
Fe        4.21950635637635    2.74138209940538   17.22591833005961
Br        3.72302368937425    4.54081838835338   15.93445549892267
Br        6.10748113819057    1.97137530326731   18.20869101519996
N         4.63883744662007    1.68738466230918   15.64288573950257
N         2.67922693362213    1.75398639817761   17.17481351912812
P         3.41551659365851    3.61424595690522   19.10467045115935
C         5.72032613761456    1.80320649394099   14.87933915162578
H         6.42754435840487    2.57032707323387   15.16707202642364
C         5.94720524127677    1.00124767449527   13.78214554059876
H         6.83949064850213    1.13127218531830   13.19263487862092
C         5.00540399921583    0.02501457206301   13.46192923554777
H         5.15845457733306   -0.62581360870381   12.61485085350391
C         3.87366477264573   -0.09143271493055   14.23692642558811
H         3.12266696993367   -0.83001755434128   14.00928741673723
C         3.70223769592840    0.76435749493714   15.33014420524938
C         2.55913700968420    0.82025528399392   16.20112750951595
C         1.38919448759729    0.05384538933937   16.04286949422850
H         1.35872940743750   -0.69590142208042   15.26914193567463
C         0.30642284871804    0.27608858282545   16.84072430837114
H        -0.60500222728627   -0.28875681847336   16.72359515644791
C         0.37653012986756    1.29143132603808   17.82725411223430
C        -0.70494021946424    1.64515600399020   18.65036276644347
H        -1.63654296946858    1.11118204457727   18.53527537928862
C        -0.58945096174044    2.65783624453275   19.57057121641420
H        -1.43596338771572    2.93145907257577   20.18263416353678
C         0.62081665466841    3.33389342707601   19.73343083293588
H         0.69338859838317    4.12671598013706   20.46261518881614
C         1.71158554912497    2.99471956980353   18.96026573514043
C         1.59631335386467    1.99068565020106   17.97754669296872
C         3.94046947330835    2.74451091529106   20.68717141909773
H         5.03457851638675    2.82068010048365   20.70174102705397
C         3.56218106730675    1.26686628951177   20.57502613995998
H         4.08688175319713    0.69116090173117   21.33472850154183
H         3.83215807785825    0.85690132028513   19.60221636454127
H         2.49094305526369    1.13207207521690   20.71819754080737
C         3.39431011673750    3.31923541598995   21.98957665871890
H         2.30678206943494    3.35896051773343   21.97864189970275
H         3.79107491811869    4.30978285211474   22.19746552917482
H         3.69370380948717    2.66704970661260   22.80892957125504
C         3.24214902257121    5.39656293903599   19.61382606609603
H         2.80873275234942    5.39077948561669   20.62037406046553
C         2.32576899259942    6.20490822079702   18.70115236970129
H         2.12281707345592    7.17227774173227   19.15830938722416
H         1.37736490159406    5.69589590060739   18.53840874973016
H         2.78702558365715    6.37924756672274   17.73443875426612
C         4.64805292674174    5.99203607202686   19.65934916003160
H         5.08474901611440    5.99188687433586   18.66093241359937
H         5.29864242588917    5.41747649041112   20.31885689639332
H         4.61670961556434    7.02044385477850   20.01447871075552

