37
CSD_code = IDIPIV | q = 0 | S = 0 | Stoichiometry = C13H20IN2Rh | MND = 6
I         0.52864272625960   -0.18243607060267    9.00521369837022
Rh       -1.49828666332061    1.02215348731108    7.83323224130810
N         0.62420035180348    1.56273470584051    5.89265177606032
N         1.62813615643942    2.40768973172496    5.52224491392934
C        -0.10441627822897    2.07704444663919    6.89420267683454
C         0.47881216327050    3.34024380292895    7.15868423137845
C         1.53694140053855    3.49854985525341    6.30471880023922
C         0.47424110491646    0.26727062971783    5.29871455497038
C         2.60532288615268    2.08467958156858    4.52912119068681
C        -2.94942240408678    2.50854590360170    7.46901116909299
C        -3.03765614977860    1.53486839028793    6.46598577882964
C        -4.16035749356949    0.51910347291820    6.39273821241395
C        -3.81814618506339   -0.79016226198385    7.13043504964232
C        -2.85942656359818   -0.59478666514275    8.28391625403653
C        -3.00344523420553    0.36028572250516    9.26847437115784
C        -4.18329383784587    1.30214023516484    9.34548487090789
C        -3.90253312883102    2.63866950186435    8.63397015633576
H         0.16176806158403    4.03473352450298    7.91153528948008
H         2.22957491780263    4.31036438870456    6.20000318278835
H         1.34582017877705   -0.35832767603850    5.50438022863382
H         0.31925783560899    0.34221512223594    4.22020765432673
H        -0.40372217583552   -0.19972363340165    5.76105596402079
H         3.17363637611217    1.19678734463176    4.81754530790563
H         3.29263518898222    2.92201409647505    4.43252910535068
H         2.13393598370436    1.90358969922659    3.55974063090778
H        -2.47973808954453    3.45655624297398    7.20120576889634
H        -2.61143236445441    1.79386879618753    5.49437143437043
H        -4.36548120296158    0.28818424554706    5.34445547107648
H        -5.06880291280787    0.96226187087883    6.80460807796270
H        -4.73459544620026   -1.26381121250825    7.50034119437527
H        -3.36180478680725   -1.48931663459720    6.42309030887926
H        -2.27037408218683   -1.48415187628837    8.50980179156725
H        -2.47701851054491    0.20925565071471   10.21153200413287
H        -4.41126705802918    1.50249037832124   10.39479796863121
H        -5.05974097593267    0.81589538472123    8.91295001784133
H        -4.84164338310652    3.08685396763865    8.28739085640050
H        -3.45992040501379    3.33576585047800    9.35145779625819

