30
CSD_code = IGUBET | q = 0 | S = 0 | Stoichiometry = C13H8Br5CuN2O | MND = 4
Br        2.68099123423904   19.93842826465277    8.39234173585750
Br        4.31145991960269   15.89977663059135   12.08923015607025
Cu        1.38071888445699   18.19008958832471   15.43808759380583
Br       -0.27372079873788   17.69673248210776   13.84830464852464
Br        1.20373029593624   16.11846365261005   16.30854183460594
Br        3.14282096016900   18.68405334939597   16.91714565163695
O         1.62781754130356   21.66737917185676   13.39340504628693
C         3.02992832175445   18.33824229374514   12.76035313649455
H         3.15889004292546   17.97484528165712   13.76922283664903
C         1.85825995209156   20.36623412658593   13.57915747393735
C         3.49970210388699   17.58198774214383   11.71551370375862
N         1.48063761226227   19.94149738836574   14.76694553739494
C         2.42773304628755   19.57814267219925   12.52098984631693
C         3.40418668495288   18.00517554623920   10.37257239280008
N         3.85641070538692   17.25738427145670    9.35695720697605
H         4.22982304920905   16.33948524784493    9.53261583870323
H         3.74330688586117   17.57148468176095    8.40762002804526
C         1.06314527572542   22.11872299452573   14.54796693677847
C         0.63249538259413   23.38551071231933   14.89160153766674
H         0.71429693401243   24.21081947101301   14.20448267655113
C         2.82271142213476   19.27437281538055   10.17274403066031
C         0.96498368722014   21.03124671009008   15.43102464474259
C         2.34986887644167   20.04572180857528   11.20415511444893
H         1.89726327867021   21.00353276604390   11.00267881542775
C         0.09805909787572   23.52654462166047   16.15951865614275
H        -0.25056863725902   24.49685119495656   16.47628782450397
C         0.42532297119078   21.18378507846128   16.69980217403700
H         0.35134564219113   20.35549110472612   17.38656071533516
C        -0.00185649961168   22.45093790981515   17.04254942062929
H        -0.42376387279488   22.61436042089302   18.02162278521435

