50
CSD_code = IGUHIB | q = 0 | S = 0 | Stoichiometry = C16H28Cl4PTa | MND = 10
Ta        8.57369372221199    1.27337370426140    2.34577005868917
Cl        7.61968975743890   -0.83656003308403    2.88385598805523
Cl       10.66605254711523    0.27524196454361    2.54462827928584
Cl        9.56636657479315    2.75392014016089    0.78516874650205
Cl        6.46948130580410    1.76092049758811    1.22955671964752
P         8.31074271825296    0.08522065986126    0.09523802776001
C         7.43320465306957    2.13223215077026    4.35634201816424
C         8.50219658039424    1.50363036998646    5.06585416137348
C         9.67845175786820    2.26727686192975    4.86626649509652
C         9.36149962113097    3.36244867325443    4.02915851833175
C         7.97459520978889    3.29039626828245    3.70575448245966
C         5.98286849770773    1.82662273614726    4.56137735263579
C         8.34819917432889    0.31600444769113    5.95375747913744
C        11.01970976843452    1.93961776719984    5.42258499547451
C        10.26136023785090    4.46496028605500    3.59113964193402
C         7.20126942555735    4.40070738315613    3.06967279671210
C         9.65682970151628   -0.97497711621165   -0.59268570982280
C         9.44924236581467   -1.30183986367017   -2.07249592671055
C         8.29254240372136   -2.27568727021603   -2.26778875554990
C         8.52137458756641   -3.54680569267296   -1.45602133895349
C         8.68626321751101   -3.21980569404117    0.02475541568847
C         9.83833602886050   -2.24526850032667    0.24165196700964
H        10.55732816567544   -0.34973419102310   -0.48367277679880
H         9.86537237583129    5.42923348344390    3.91024870131184
H        10.77797606812085   -2.72234379665520   -0.04699271869640
H         7.75717733367405    4.81514501468805    2.22986130483363
H         7.76274353103481   -2.78338989948243    0.41328120804694
H        10.32896908174221    4.47729150973283    2.50147554357436
H        10.93571486500460    1.52276922479159    6.42391819715206
H         9.26648791916925   -0.38260779508366   -2.63612656878785
H         7.15933165708487   -0.67147638893620   -0.00472704735383
H         7.02387730107384    5.19876953844440    3.79235836196921
H         8.87650209973461   -4.13475765232814    0.58812923688169
H         6.24032808429578    4.04769976657338    2.70425273546669
H         9.90702112754458   -1.98423575449741    1.30107491956610
H         5.38784841904861    2.18900565329732    3.72624752367011
H         7.78994741522918    0.58281075471714    6.85233537740300
H         9.31571439720109   -0.08362234920670    6.24500188688766
H        11.26391898567276    4.34403351245921    3.99131372924184
H         7.35966839023356   -1.80058455814480   -1.95141358947404
H        10.36711194740810   -1.75267167685406   -2.45831546841463
H         7.68169664895956   -4.23019036058872   -1.59395329724481
H         8.19676279650093   -2.52162999482102   -3.32717525794784
H         7.79566432601335   -0.46974424500260    5.43828834939771
H         5.83075751081026    0.75216992698677    4.64886408236556
H        11.65558600553441    2.82021687598694    5.46362185419202
H         5.62229176450109    2.30122955726630    5.47511445862790
H         9.42237708736968   -4.04735475880900   -1.81840754531213
H        11.50854668645821    1.19735509151543    4.78488989467068
H         8.09710815232025    0.94738377083756   -0.96993450813629

