64
CSD_code = IHIZUV | q = 0 | S = 0 | Stoichiometry = C26H32ClN2O2Rh | MND = 6
C         2.47888423687286    3.88419705649276    4.37217107747868
C         0.14051045347427    4.30609879427282    3.73583925622668
H         0.02918555662467    4.19817375091484    2.65082823305159
H        -0.78632467900685    3.97630747368170    4.21374597840370
C         0.45936952227831    5.74829098050661    4.09754990702381
H         0.52589789874104    5.84178859806355    5.18335695287279
H        -0.31420827452819    6.42094971103887    3.72827138585775
C         1.80862798789027    6.08261581841134    3.48168417205021
H         2.14191251483267    7.08079587016481    3.78087154265388
H         1.75392081101331    6.04816266328698    2.38710003656188
C         0.89303892871471    2.10386231727361    4.48496671696454
C         0.46578523024808    1.28136236388406    3.42777248664147
C         0.15560746541402   -0.04688382944702    3.68720684740775
H        -0.16711892517085   -0.70025184148643    2.89201782619421
C         0.27061837065975   -0.55483626526645    4.97185620703217
H         0.03091767817341   -1.59292478448217    5.14926372586738
C         0.68441743764686    0.25449702153121    6.01137558076187
H         0.76530530448945   -0.14013239427060    7.01211940630014
C         0.99155794109368    1.58467666402571    5.76702949371332
H         1.27896779129289    2.23836438508047    6.57791653545764
C         0.01509192718218    1.07187737406626    1.09538211032436
H         0.70192738430106    0.23405371118473    0.93839880025653
H         0.05076285851831    1.73116174212953    0.22911023855458
H        -1.00399025763635    0.69011798891979    1.21582930106275
C         4.14577179557456    5.52611211237613    3.93321520017070
C         4.77477380826618    5.68817466638041    2.68688732650573
C         6.11063628178929    6.06531038795183    2.64849785377983
H         6.62097252593683    6.18490062343676    1.70567469368753
C         6.80878221815085    6.28153121716377    3.82607206418650
H         7.84892804700383    6.56800824893310    3.77412233410207
C         6.18545821726193    6.13803910929473    5.05004173345820
H         6.72830785922729    6.32226756227996    5.96432508780715
C         4.85140918669572    5.76167607287466    5.10270691003908
H         4.34116397022625    5.67213021023874    6.05080439293573
C         4.60232523295412    5.52389615055076    0.31518440609062
H         4.95678038327612    6.53792769161185    0.10294689402277
H         3.82096681815128    5.26085622065327   -0.39653298238404
H         5.43352252407049    4.81878125678214    0.21364835624555
C         5.10383208037941    2.28320486578056    3.86159772619956
H         5.01699559032261    2.99116776489010    3.03990336488398
C         4.07850609445343    1.34554582620680    3.99308582125569
H         3.28640512165362    1.36983455201597    3.24571443440095
C         4.22767602208658   -0.00915613446713    4.64676562438795
H         4.76973925046791   -0.68098483581580    3.97021522173693
H         3.22601175709180   -0.42481573240432    4.78205261543774
C         4.93702068968502    0.04447765356141    6.01311759684690
H         4.56395118193032   -0.77291402072705    6.63399430918855
H         6.01084212788174   -0.10798911578973    5.89015756610813
C         4.70504458568161    1.35578086386048    6.73051815785648
H         4.06606893537913    1.29232148147005    7.61146954395462
C         5.55321583264274    2.43979339663286    6.62935101028936
H         5.56396323803376    3.15736899989115    7.45011978174720
C         6.78535466145932    2.49565728924004    5.75569644170614
H         7.57908801376641    1.89092822824416    6.20952309327708
H         7.13607179711476    3.53010177305989    5.73291149218255
C         6.52812364576740    2.03002856966551    4.31014828574699
H         6.74849678025382    0.96553032900977    4.20820841705726
H         7.20978357769937    2.56604008356115    3.64559910778935
N         1.22247724168376    3.46014511918466    4.21692726965435
N         2.78281437763717    5.11761508420569    3.96535197135163
O         0.40470910924111    1.86278529654222    2.19034160172386
O         4.00407370793174    5.43931466883995    1.58456127676532
Cl        2.86537301099615    4.01821188792239    7.22995597442136
Rh        3.80769753703477    2.85116940486400    5.44715420464634

