33
CSD_code = IHOLUN | q = 0 | S = 0 | Stoichiometry = C14H12Cl2N4Pd | MND = 4
Pd        0.75585442979447   16.22247739667327    5.35608622567050
Cl       -0.14533432185597   14.73439529500848    3.94560938112762
Cl       -0.70945016483672   15.63219081626247    6.90962224921578
N         2.61820259224453   18.29525538268026    5.66998326908174
N         2.01800230228605   17.90809000353131    7.70219613737039
N         1.94582880800469   17.01336705930539    3.89805323430826
N         3.44917356205900   18.81948060997770    3.55632726027153
C         1.76658799787589   17.54695375581426    6.44073052957435
C         2.99715752287061   18.87284845801877    7.73528057421515
H         3.34338841848218   19.29740741923954    8.65533258717929
C         3.37415431171947   19.13007134068943    6.46340752652600
H         4.09256870479695   19.80523902405746    6.04927696683058
C         2.68846483703059   18.05852613261878    4.31557588424472
C         3.47394072688748   18.54210799802157    2.26079735484105
H         4.10453833933868   19.18052223129900    1.65902374798916
C         2.73179839958044   17.49936501202850    1.71986814496196
H         2.74830695076001   17.28125821857108    0.66594363670260
C         1.96744559398975   16.74198983236830    2.59327250553034
H         1.35952428780942   15.90039475651391    2.27650095318617
C         1.47566472572561   17.23362028019352    8.85990033248419
H         0.48350734330216   16.85065874081609    8.58514533090748
H         1.39387275348176   17.94480067432152    9.68394745133228
C         2.36442750333157   16.07064649546331    9.23969166939955
C         2.96838430598401   16.01642822764380   10.48734940877881
H         2.79812434490960   16.80913970975225   11.20214882176437
C         3.77554414576942   14.94422966178991   10.82899476835643
H         4.23440222280770   14.90795382685722   11.80588660774242
C         3.99176477796720   13.92305849766810    9.92122156265072
H         4.61946104652815   13.08596471773933   10.18757427248799
C         3.39566817537985   13.97405458725550    8.67103205725671
H         3.55507976787507   13.17519778328766    7.96282934777521
C         2.58592749277169   15.04181822192336    8.33030207883060
H         2.10281809533111   15.06248783261411    7.34678812140796

