60
CSD_code = IHUGOH | q = 0 | S = 0 | Stoichiometry = C23H35ClZr | MND = 12
Zr        2.69676738870150    3.31205220634163    2.51158627949092
Cl        0.46753446242276    3.95371434517785    2.04529745288100
C         2.21951549428818    2.00199380066207    0.40910620781380
C         3.06684781548484    1.14955068599658    1.16088946922288
C         4.32935354053734    1.79457709274170    1.29601529354277
C         4.28109772325317    3.02665617338081    0.58256878419420
C         2.95742814831623    3.16918539776093    0.06629889450898
C         0.84677445923348    1.65223216999324   -0.09435689483343
C         2.83951303681781   -0.31469707876377    1.42230652199587
C         5.55149280065777    1.12974204497049    1.87045689524350
C         5.50091982124678    3.73845864301161    0.05947216705433
C         2.43557900894624    4.27596853365125   -0.81351486917969
C         2.69901243873654    5.72338864864364    3.18170612203770
C         2.61153148559133    4.92672785277999    4.35451316583297
C         3.86193952696481    4.25729892467381    4.51414254198216
C         4.71620578200467    4.65858164287190    3.44743326652923
C         3.99461838138050    5.56201220757852    2.62156703265306
C         1.70056888156683    6.74991069694934    2.72581434392130
C         1.43619941367043    4.93284196387990    5.29427295005893
C         4.36433198456197    3.51664958819484    5.72585608598897
C         6.20007566792790    4.41295176983051    3.46999225403467
C         4.53844834439750    6.50152498021945    1.57974827045707
C         2.22202996976075    1.74370111189158    4.04817358962099
C         0.87736475257683    1.26299490032402    3.70399917020878
C        -0.24699315701819    1.63652467770488    4.31785689629623
H         0.21372248766828    1.26215049456100    0.70374028880008
H         0.35481023383403    2.52904911433197   -0.50870169687418
H         0.91632458144573    0.89404930441810   -0.87872293346862
H         3.47113032923932   -0.89966502968502    0.74779142506101
H         1.80686934373241   -0.59126587791479    1.22427328163083
H         3.09403905875445   -0.60999084434729    2.44022440731163
H         5.69626643548319    0.15074244745837    1.40911599993190
H         5.45984343867095    0.97146654948893    2.94974987181081
H         6.44448802424741    1.72061572967151    1.67966572488378
H         5.97238674541852    3.10998132742813   -0.70164453578807
H         6.24260895969922    3.92456195693198    0.83116540691974
H         5.24439720514006    4.68124161692208   -0.41487977629665
H         2.15395470096090    3.88103231382218   -1.79209495176258
H         1.54793847388379    4.73983740855765   -0.37132975103079
H         3.18993192580506    5.04498384309692   -0.97398448364641
H         0.71291016478991    6.54104644342515    3.13007579221762
H         1.62481593747483    6.77308749797845    1.63782056698286
H         2.00775625816965    7.74398281335503    3.06345175432318
H         1.59121576635184    4.25609429212275    6.13285812778678
H         0.52186174463857    4.63988517484715    4.77144216218806
H         1.28609349467646    5.93604781771872    5.69856941142580
H         3.57540086099013    3.36264664253636    6.45860987661725
H         4.79077191965862    2.54567256983649    5.46431066569809
H         5.15086611815759    4.10054490762576    6.21088826139499
H         6.44697866230388    3.35292379646173    3.39978654355976
H         6.61260441888190    4.77960264613097    4.41310599959074
H         6.70583372795477    4.94698676626586    2.66911021820696
H         5.56835745700584    6.27095854830460    1.32182377472965
H         3.93480746204138    6.49538770747259    0.67121920993989
H         4.51672646707559    7.52095364125927    1.97315634341313
H         2.96333228850724    0.92981150517965    4.00621516551226
H         2.19291280953074    2.14314255037341    5.06925714808048
H         0.80001321970518    0.52833046051367    2.90563288836203
H        -1.21436931787550    1.28374887014704    4.00440983813993
H        -0.23755857601540    2.33091201287082    5.14408608289518

