23
CSD_code = IJAQEP | q = 0 | S = 0 | Stoichiometry = C11H8AuCl2N | MND = 4
Au        9.32332599471316    0.23250065774747    0.61288256055765
C         7.51628018329456    0.58972247689301    1.39374707747711
C         6.95211137441231    1.81325253690978    1.68652162290667
H         7.50652685198320    2.71788510866806    1.49162667337070
C         5.67600031468596    1.88331543559737    2.22985058586471
H         5.24640758287738    2.84774395056992    2.45445311933445
C         4.95987580835327    0.72499865705821    2.48136945966930
H         3.96796888942744    0.78171778324267    2.90376035478354
C         5.51332270118095   -0.50649482245984    2.19235208874093
H         4.94880989855011   -1.40463488901787    2.39053852532334
C         6.79576688379452   -0.58843096017195    1.64637832772270
C         7.45644931805220   -1.83625346496310    1.31150255945219
C         6.91898055045757   -3.11177023144175    1.48355842958622
H         5.93076677960661   -3.22503559835220    1.89794942215036
C         7.65736445177554   -4.22185865087802    1.12166032769845
H         7.24907639078087   -5.21275916052953    1.25139027943144
C         8.92812330293727   -4.04582984763129    0.59017317735169
H         9.53670591698976   -4.88443669860081    0.29523427714333
C         9.40929469306634   -2.75976359781378    0.44262102928657
H        10.38957301931748   -2.54500732663428    0.03607389754838
N         8.69270014104653   -1.69876640422482    0.79336698031370
Cl       11.36647657228555   -0.39819930505526   -0.28056324468415
Cl        9.83459238041072    2.38530435108835    0.49315246897098

