43
CSD_code = IJIKIX | q = 0 | S = 0 | Stoichiometry = C20H15BrN2O3PRe | MND = 6
Re        0.92131210648454   10.23646314008359    4.15869073695716
Br        0.02222237435261    7.84603895671200    4.17390702038927
P         2.36654287715611    9.26294290435735    2.49971756348221
N        -0.34722632622883   10.37563070358019    2.26473653700919
N         1.32882996923031    9.19903331525773    1.15825249507157
H         1.61493124837691    8.71492482991762    0.31592371105845
C        -1.57094315817293   10.90918306066137    2.26510291652624
H        -1.86917683151016   11.41600143247209    3.17312496135521
C        -2.42900956001549   10.83506058746496    1.19051070138895
H        -3.40815940630163   11.27928578600514    1.25025330637683
C        -2.00390696457485   10.17218695984638    0.04426309691622
H        -2.64904907106666   10.08540011281132   -0.81624482731914
C        -0.74208293711895    9.62497786678676    0.02648120854434
H        -0.36836665932470    9.10081741516060   -0.83994444981532
C         0.07048530529935    9.74226094777842    1.16063661183813
C         3.82611883055757   10.12373340546320    1.81559474700113
C         4.40690474458980   11.15684472398001    2.53911893780486
H         3.97858468645763   11.44035971093036    3.49276213907428
C         5.52426394503686   11.80687585184906    2.04492534456830
H         5.97364529556799   12.60908695937449    2.61060299812331
C         6.06163793534045   11.42737168400349    0.82665126521552
H         6.93092892368881   11.93615789240369    0.43763048910985
C         5.49099037685077   10.38881572951306    0.10655232810016
H         5.91777432624119   10.08761087601765   -0.83896486415439
C         4.38015556185848    9.73269707192008    0.60102181656058
H         3.94953787980725    8.90655576612541    0.04907041444991
C         3.02950860136881    7.57821654245531    2.57954041263929
C         4.23194324419305    7.40753796405884    3.25961570024842
H         4.73253684343090    8.27057105493290    3.68080269641569
C         4.76975205864317    6.14303621215344    3.39946997803441
H         5.70005722507896    6.00975497241110    3.93116787953133
C         4.10864856901275    5.04776565002835    2.86572557481664
H         4.52739183581294    4.05897264210347    2.97885184587685
C         2.35706710009464    6.47826974158558    2.06218199762471
H         1.39587303357663    6.59756600362366    1.58242678939790
C         2.90514657915439    5.21597167099719    2.20198233437862
H         2.38140601622316    4.36022997532560    1.80322041781071
C         1.46875713597851   12.07909732394654    3.90006131201723
O         1.74755917494530   13.18103035862814    3.73398397390833
C        -0.54361584640310   10.75693367223750    5.33881585717967
O        -1.42957286283601   10.99817451447919    6.01999508988741
C         2.09910468395263    9.90935961148044    5.67886319959968
O         2.81499113519875    9.64829439909406    6.53451773501303

