58
CSD_code = IJUPIO | q = 0 | S = 0 | Stoichiometry = C24H26ClMnN2O4 | MND = 5
Mn       -0.82325111211255    6.45999387281791    2.36057531219113
Cl       -1.87644779243945    6.61960643230858    4.27358196924131
N        -1.21149465782020    4.63597167782455    2.24813688108862
N        -2.58617046622894    6.57991995498306    1.35796878387160
O         3.28462675829727    6.49869335876435    3.69327736643390
O         0.73654356989299    6.14112589826728    3.14542329011468
O         0.90136788979699   10.18973805444425    1.13594019534961
O        -0.46651118223038    7.95032260965084    1.53987279672846
C         4.62273836841385    6.71242656303464    4.05917715025730
H         4.69813380128945    7.77269822506989    4.29521743251205
H         5.30790798184346    6.47400245918142    3.23793164781526
H         4.89735462483154    6.12413001001702    4.94120535180151
C         2.89563139702324    5.23534215399641    3.37730996931476
C         3.71240577223497    4.13414883829210    3.34258810331475
H         4.75833144963656    4.21428971291845    3.59483686515635
C         5.83762590368904    1.49733006359149    4.87246921517898
H         6.65163741653388    1.74441836194904    4.20972288366534
H         6.10235005040163    1.30779013953244    5.89874337936635
C         4.59202751070758    1.42133679906454    4.44475810520798
H         3.78998136160830    1.17639794591388    5.12835742758836
C         4.15997466243789    1.68961045328012    3.03418788219372
H         5.03569527058228    1.89998526245249    2.41553580436246
H         3.65616361999561    0.80609011580503    2.63479986723953
C         3.21359920843175    2.86171163118140    3.00294299903511
C         1.89125095752325    2.71814042309519    2.68827401853266
H         1.49221292003483    1.74712178398406    2.43152924256103
C         1.01586441398731    3.82650269063529    2.67161487926871
C         1.50427100145142    5.11748313493800    3.03962281815227
C        -0.35281830284558    3.65361796967920    2.36238619516710
H        -0.70887511720321    2.63059407656402    2.23958178749310
C        -2.62132361528538    4.29389707441216    2.16018594821606
H        -3.02742268490436    4.37354563685023    3.17771237153783
H        -2.77006958400187    3.27508447028944    1.78404068356062
C        -3.31398079419921    5.32388603962815    1.26363071044847
H        -4.35986810663564    5.45757206041050    1.55945553498948
H        -3.28367790084872    4.98761285776346    0.21948007005129
C        -3.12826543434769    7.61723093683427    0.81598816296403
H        -4.12930482485473    7.54127426942233    0.38525149381832
C        -2.46115300410675    8.87539256080484    0.66473815692415
C        -3.11553939474392    9.98137626243218    0.11058078220259
H        -4.15912005411942    9.89745709060695   -0.15429044836610
C        -2.45068861850704   11.17283187565324   -0.08481926361523
C        -3.18635833469771   12.36076158456035   -0.64922110891252
H        -2.49182552084155   13.19442153120885   -0.77880964559304
H        -3.60504988504417   12.10770392162702   -1.62614192236395
C        -4.29087514249545   12.77556004868433    0.27684618195872
H        -3.97441645877956   13.03593762598589    1.27794532482500
C        -5.56731711411791   12.81240775744301   -0.05356584668559
H        -5.90519133868866   12.55213983474025   -1.04392000068203
H        -6.32964221527838   13.11015812184399    0.64581121896532
C        -1.10053696561172   11.26928773001361    0.26115130736868
H        -0.59311146731489   12.20870604223392    0.10294543776883
C        -0.41184021606380   10.19254324897806    0.78879145907515
C        -1.09335539875443    8.96698348404565    1.02083620971584
C         1.62572609067664   11.38960441576899    1.03919736018953
H         2.62345286524491   11.16024546656413    1.40963686895073
H         1.18276936748882   12.17738985304068    1.65709804881960
H         1.69575847108563   11.73574752492094    0.00197528365395

