44
CSD_code = IKIPOI | q = 0 | S = 0 | Stoichiometry = C14H25ClO2PRh | MND = 4
Rh       17.99086362832208    3.87610772512752    7.69097283452066
P        17.13981089340683    5.33534072587652    6.10909714853394
Cl       16.23171583943087    3.91419147307043    9.08730015514022
C        18.42633522990967    2.71547936319484    9.09689060467090
O        18.53685233695355    2.05226300048454   10.01722897951181
C        19.53770036446582    3.65624227977786    6.72609989095573
O        20.52102341001957    3.46834805115688    6.16294599408607
C        18.43982733111875    6.09702353337306    5.03042733186090
H        18.88522485587466    5.26561350944714    4.47725789016732
H        17.99951851500483    6.78531453358337    4.30664423856350
C        19.53634227858632    6.76721759258565    5.83172492106800
H        19.67216776218973    6.33522980417352    6.82199534528960
C        20.78623278133025    7.21016784294939    5.12960988115568
H        21.73545413433644    7.06606229837068    5.62145210085398
H        20.83210527893915    7.09191171445481    4.05728742753350
C        19.83630795920107    8.22795563565023    5.68298037980699
H        19.25568256388988    8.80478552902001    4.97759173299364
H        20.13438349589369    8.79072719108813    6.55508729493048
C        16.18519776759255    6.84134443837364    6.75503405686917
C        17.00622951884407    7.32113894720171    7.95889902074659
H        17.94058415358515    7.77661057479429    7.64151482586739
H        17.23013414283840    6.48655747674864    8.63023459136611
H        16.44256052647862    8.06295736138113    8.52240564406443
C        16.05624798624648    7.98654127403121    5.75114919595427
H        15.44433537867823    8.77076945285455    6.19563702696706
H        15.57484079177648    7.67275697592348    4.82955707550524
H        17.02360374852620    8.42091140427629    5.51786081307288
C        14.79567873802820    6.43584082740719    7.24668670857671
H        14.34481387938069    7.27119076155468    7.78170578195258
H        14.86237235507557    5.59637224623827    7.93430973592777
H        14.13506355192808    6.17876917241756    6.42241045693965
C        16.12448079370195    4.32533182422315    4.86494689954090
C        17.10092115414344    3.42489443761030    4.09860244563238
H        17.80471465798560    2.95007651462628    4.78732706984042
H        17.65410648318036    3.97266775282157    3.33950855911152
H        16.54475245475713    2.63597375682597    3.59387150164596
C        15.31093608227890    5.14219911373636    3.86608176620214
H        14.84348510254142    4.46859681552487    3.14816489818855
H        15.94512818994157    5.83085595826096    3.31123303046034
H        14.51960412249930    5.70299582576395    4.35525726153659
C        15.21874577268795    3.40582312345022    5.68773861320907
H        14.49771258553251    3.96211601481044    6.27813757896244
H        15.83102346515393    2.80548929872668    6.37288260856399
H        14.67347793774978    2.72753684703021    5.03244868164409

