43
CSD_code = IKOJOI | q = 0 | S = 0 | Stoichiometry = C18H22Cl2Zr | MND = 12
Zr       -2.19430775277965    5.45660695664645    2.99449516010629
Cl       -0.58669377314900    7.04971825643891    2.42385530645137
C        -1.62738327540673    5.52152917671224    5.34487079427328
C        -2.66582762709645    4.54919301267816    5.22482679144452
H        -3.64331516854241    4.61701848487486    5.69083429714058
C        -2.14786069163035    3.43477345702808    4.53430549629812
H        -2.64995766662120    2.48481062307830    4.40148613009556
C        -0.80124271988273    3.71026752348389    4.19934233020203
H        -0.09676867397480    3.00723809216799    3.77160051281034
C        -0.47395023473759    4.98669888537299    4.70279469817893
H         0.51591516251237    5.42599307167533    4.70364814339103
C        -1.78768612446705    6.83204718216828    5.95986221832811
H        -2.68031429762354    6.94994053361848    6.56242289039621
C        -0.94707799528518    7.85260775664601    5.78837466109017
H        -0.06702166697691    7.72626446339080    5.16736831698777
C        -1.10367833019471    9.22776455872365    6.35506139967114
H        -1.07543991612787    9.93345848711721    5.51853808809441
H        -0.23008523398198    9.44697866977688    6.97895964451671
C        -2.37652680347883    9.45399246060740    7.15992360251166
H        -3.25193296034406    9.25894705036981    6.54523070062400
H        -2.42063376758277   10.48531136300413    7.50264065929171
H        -2.40433601492728    8.80374564076302    8.03131352936269
Cl       -3.80599307634352    7.04931250758595    3.56179982790666
C        -2.76296882084283    5.52153247769415    0.64446608033402
C        -1.72471405203185    4.54895379353253    0.76401274376108
H        -0.74740150324053    4.61656057005268    0.29765987583990
C        -2.24259772811831    3.43470330378728    1.45479021162768
H        -1.74060960926174    2.48466953184718    1.58743920771761
C        -3.58908047734925    3.71040950014276    1.79012977214542
H        -4.29366701089663    3.00730322184818    2.21759611081825
C        -3.91622230151861    4.98715293789796    1.28727001909518
H        -4.90616314674324    5.42636907445553    1.28619596479147
C        -2.60286768640402    6.83188937102295    0.02904815375052
H        -1.71101500884895    6.94934927929212   -0.57473478498487
C        -3.44296248247899    7.85271458759176    0.20152674539359
H        -4.32244146738237    7.72656095763029    0.82342087856356
C        -3.28674182710417    9.22780531416612   -0.36540125036886
H        -3.31455332808215    9.93357876084638    0.47106134293347
H        -4.16068708732899    9.44690982808860   -0.98884939946401
C        -2.01434085686648    9.45391472468279   -1.17099333791024
H        -1.13862092221625    9.25847480699307   -0.55687197009276
H        -1.97020260579360   10.48532130104781   -1.51343352156158
H        -1.98722346885052    8.80390844347565   -2.04258804156087

