42
CSD_code = IKUSUD | q = 0 | S = 0 | Stoichiometry = C22H13AuClF4P | MND = 2
Au       10.90257099569618    2.70870343249298    1.65638893545639
Cl       12.57345012319773    3.93608409504614    2.55842363355690
P         9.16517436895466    1.51279321929214    0.86977690740035
F        10.83026516202380    1.54829262863787   -1.21355002388164
F        11.78843091089564    2.00704993299906   -3.69474212267291
F        10.27061725943307    3.28502696367724   -5.54972036587111
F         7.75588240798029    4.12319922598253   -4.89756697168636
C         8.19904731870864    2.32012145280771   -0.45081063421751
C         6.93768822422604    2.79962849700445   -0.16438629429683
H         6.51777986724991    2.63836311438374    0.81750348201814
C         6.17857168229946    3.48629445321434   -1.11769920577588
H         5.19356394271992    3.83783694810268   -0.85297917823744
C         6.67566770604002    3.70488929871225   -2.37226265571685
H         6.09796791552101    4.22517418218180   -3.12002776023765
C         7.96955843427026    3.25611466535617   -2.70598395527351
C         8.50880325794234    3.48506671477842   -3.99277222240319
C         9.77242231904716    3.07042710789262   -4.33132444723210
C        10.55863825196800    2.40579215261375   -3.36996884892232
C        10.05326461211122    2.17179165553431   -2.11431794813310
C         8.75413641662773    2.57018121741831   -1.73789925428191
C         7.92965033699066    1.26294512025885    2.18094028875350
C         7.95971334119485    2.11502854326880    3.28050987388458
H         8.70680630703392    2.89810689672842    3.32288103592256
C         7.04886133587310    1.95407182853448    4.30883502107805
H         7.07668715947938    2.61806286346967    5.15920161196101
C         6.11029406748419    0.93704546858296    4.24824952011990
H         5.40290245033705    0.80687151509157    5.05324837050043
C         6.08203540219050    0.08077541189690    3.15856457821671
H         5.35377491113638   -0.71541953083366    3.11531326296988
C         6.98717307027289    0.23862662526863    2.12568708759762
H         6.96700585840773   -0.43198496873112    1.27813717764547
C         9.41786472374614   -0.18981896435587    0.29438982734878
C         8.69226391489110   -0.75922931361047   -0.74628445787653
H         7.93997522413786   -0.18124313224875   -1.26765543125548
C         8.94211262058598   -2.06968610228958   -1.11268484571362
H         8.38175994968074   -2.51465507074867   -1.92180410995335
C         9.90804585602321   -2.80825403172021   -0.44848199743097
H        10.10035545287977   -3.82877611489457   -0.74334365083083
C        10.63220140849668   -2.23888144909382    0.58688897077435
H        11.38981828474082   -2.81282404405985    1.09852487886375
C        10.39113844582445   -0.92912470594386    0.95721589327047
H        10.95815870167766   -0.46206780270083    1.75218602456044

