62
CSD_code = IKUSIR | q = 0 | S = 0 | Stoichiometry = C30H25ClF4IrP | MND = 7
Ir        2.04927120478518    8.87678451807302    9.87520590649297
Cl        3.02687548442042    7.31797712933524    8.43081405076531
P         0.67533459261065    9.28443670500417    8.03812645273873
F        -0.40705203921044    7.35998398419192    9.53010203165652
F        -0.95897918599584    4.87582078722739   10.39161275257228
F        -0.77723298000968    2.74577566232954    8.70771001626255
F        -0.03251286427703    3.13730705930645    6.10863915401618
C         0.53513143449028    7.86531348167398    6.88064204847294
C         0.93643609113649    7.99794252111702    5.57039128556697
H         1.25351419684657    8.96244186061489    5.20416568250014
C         0.97361652415899    6.90537328695869    4.69711436980947
H         1.29510209705712    7.05716808029441    3.67811282963775
C         0.63575307269137    5.65550263885152    5.13383061187590
H         0.68835983113122    4.79949339754695    4.47959721022455
C         0.22787574847597    5.46492397719276    6.46941798871604
C        -0.09676582182053    4.17776732358442    6.95358700654323
C        -0.47652918571900    3.96847534131210    8.25514105393197
C        -0.56696929181606    5.06894690569184    9.12602902859577
C        -0.27029152120197    6.33016070088994    8.67278110494196
C         0.15527769857538    6.57741057107692    7.35177038305315
C        -1.06228315051065    9.85176389392420    8.13050227288224
C        -2.14311020913847    9.09567422390538    7.69399712613889
H        -1.98391486221524    8.12864620013580    7.23820953306819
C        -3.43271893746492    9.58114393881209    7.82853282303071
H        -4.26581339228347    8.98572470190972    7.48466323755353
C        -3.65654654878267   10.82191436422245    8.39924198821372
H        -4.66400928082523   11.19555219333765    8.50473856453052
C        -2.58317080193170   11.58427127320464    8.83277702215176
H        -2.75159514120894   12.55488762114117    9.27545691731552
C        -1.29622292063712   11.10048428511078    8.70110520543459
H        -0.45593987831390   11.69590298173674    9.03011862308014
C         1.37211673779560   10.59547722477217    6.97678385743599
C         0.61867070787638   11.30657542772321    6.04620366820090
H        -0.42931996908382   11.07663983017910    5.91068062497529
C         1.21226606868104   12.30507740514819    5.29576420582935
H         0.62480602220032   12.85532538052430    4.57522705394774
C         2.55595418882089   12.60076042632700    5.46543805217079
H         3.01323616568856   13.38240239805644    4.87699754411001
C         3.30980766706371   11.89645600674547    6.38992729955080
H         4.35652385946644   12.12647322489019    6.52232757630663
C         2.71844119619660   10.90061569642204    7.14582349991416
H         3.29211825758769   10.34008411303258    7.87381611348735
C         0.75671870185857    9.70892222396244   11.32789080352111
H        -0.25372029883113    9.83307614410478   10.94052424403436
C         1.71068794711070   10.67647843880369   10.96854150105104
H         1.37935260346186   11.47590930253850   10.30733165543713
C         2.85698877410728   11.08147375577562   11.87647104256822
H         2.54690113460530   10.96426547823321   12.91524068093190
H         3.07615859425298   12.13966280161909   11.72352841962561
C         4.13308660509633   10.26527063638408   11.59909950492155
H         4.73903822632885   10.79292353254122   10.86036575650914
H         4.73465367822267   10.18102091211831   12.51002658586663
C         3.84309218437681    8.88292172192083   11.06250945844420
H         4.64888318459716    8.46830863372880   10.46110374687363
C         2.94168353434305    7.99133237685940   11.63136585039097
H         3.07602385623063    6.93564075579910   11.40733332682876
C         2.16894839254708    8.28139413683064   12.89917398711437
H         2.76198579159634    8.94002807192641   13.53509376301606
H         2.02191781670382    7.34906930304312   13.44643655639355
C         0.79142423670442    8.90715639625587   12.60869221377184
H         0.05345267953091    8.10922878389446   12.51302667408342
H         0.47921149182524    9.53935785011958   13.44672045090409

