64
CSD_code = IKUTIS | q = 0 | S = 0 | Stoichiometry = C30H28ClN2OPPd | MND = 4
Cl        5.71781959691785    6.19838642986375    8.04353196348173
C         8.28920905552753    8.09425744672772    5.84560440260551
C         7.66983157350601    9.03255231629660    6.66693062714520
H         7.45888881013961    8.78063304370758    7.71719684134266
C         7.30421898086912   10.26347441745914    6.15231781602573
H         6.81575016411401   10.99045253562817    6.78441036306650
C         7.55894246968733   10.55925648056127    4.82215157236617
H         7.26827894464869   11.51825844902584    4.41916037211104
C         8.18061650654197    9.62792130696036    4.00585745639258
H         8.37582063364722    9.86316439052482    2.97001070844805
C         8.54637122121466    8.39405148193171    4.51376446164868
H         9.02753720353214    7.66001982910468    3.88218734865993
C         8.71407951287446    5.33858190392264    5.23432500318783
C         7.44762504510704    4.89046980083861    4.86928208676964
H         6.58640044668144    5.22903470316134    5.43101572831142
C         7.31237940701239    4.01371930953272    3.80951882486692
H         6.33299139138685    3.66263131291480    3.52058915126073
C         8.43633859780368    3.58164941158091    3.12110099133557
H         8.33011074616264    2.89601074050110    2.29321408765594
C         9.69680828935705    4.02008228610769    3.49428124861948
H        10.56935884589268    3.67630977469829    2.95771687590395
C         9.84197454941080    4.89836665978474    4.55405548185587
H        10.81852502712939    5.24562821989129    4.85781928473810
C         9.78055014388348    6.90567387927029    9.09153249065733
C        10.75864409580909    7.02501294982692    8.11095385365316
C        12.03804821374175    7.43322302513661    8.44208408178570
H        12.79376600052787    7.53218340003564    7.67800618304214
C        12.32516747248338    7.73310883486667    9.77143692922988
H        13.31763678388421    8.07200230449718   10.02726296329784
C        11.37361303286553    7.60702741322468   10.76680005966962
H        11.62272126559328    7.85121550609107   11.78876292219535
C        10.09351890147100    7.16984420507600   10.42499353867374
C         8.93954043165838    6.91586870370362   11.28399074321408
C         7.53972200039188    6.45747941824535   13.03292606447356
H         7.19097220075880    7.26554606104567   13.68320522239907
H         7.46585073505981    5.51422584548419   13.57832883130339
C         6.76958427104944    6.44628624940553   11.69113700175320
H         5.94683805207063    7.17053769741054   11.71001005930332
C         6.18654331499016    5.07942582661672   11.25726418596516
H         5.59265997985788    5.27848998237151   10.35704396782429
C         7.28755053864976    4.08579990852952   10.87314321383991
H         7.79098290284351    4.40496193676604    9.93708747716506
H         6.84668078338574    3.10880555147521   10.68914240000163
H         8.03334312606099    3.98410130128429   11.66218842548036
C         5.25878896848387    4.50443302617337   12.32292627246241
H         4.53355666846458    5.24980984562707   12.64101747836218
H         5.80979791370167    4.16162655260611   13.19693350876311
H         4.71667396819447    3.65513198719666   11.91524919604179
C         9.98583353686877    6.32637749460842   13.45301212857130
C        11.02866385377448    5.53124526992572   12.98169310605810
H        11.02170386859656    5.19131461342492   11.95712203967354
C        12.06362126585985    5.17770907960247   13.82633493718277
H        12.86970984475944    4.56529519002258   13.45082510668352
C        12.06212313719998    5.58955367443350   15.14898010813277
H        12.87149413042059    5.30899540875479   15.80552865680743
C        11.01155279955836    6.35429990775654   15.62758015912276
H        10.99834605830753    6.67072868569679   16.65993628665920
C         9.97590085397177    6.72111863629068   14.78867681651508
H         9.16203827134932    7.32294766605799   15.16346698738058
N         7.76327952957124    6.87572413633651   10.72590815647980
N         8.91984082466640    6.68694449801395   12.62252950310252
O        10.39954878702266    6.71570206785466    6.80441596394634
P         8.78273135422588    6.50756540476022    6.60777554156768
Pd        7.91588309881615    6.52244460372563    8.64464473375653

