43
CSD_code = IMAPOC | q = 0 | S = 0 | Stoichiometry = C18H16Cl4FeN4 | MND = 5
C         2.66926205722119   15.13322653490749    0.28688784815114
H         2.10799684906291   16.04497312403238    0.05174928208692
H         3.64615651214999   15.21477069022317   -0.20314572659694
C         2.88571466972563   15.06800924033963    1.77723014383619
C         3.53293062812165   16.09444923680013    2.44036750507856
H         3.88068066766687   16.95116225582382    1.88222190436901
C         3.72796088030620   16.00983185311939    3.81105133749915
H         4.23035441563056   16.79923033494752    4.34705243911482
C         3.25673440768245   14.87827044844336    4.46324876567966
H         3.38043822676672   14.75575075477711    5.52688325897615
C         2.62038363410791   13.89869832510302    3.73221145325946
H         2.23785896377068   12.99978620300528    4.19207489790015
C         0.64120837838238   14.29085231744995   -0.76259341602724
H         0.25333590708637   13.37771580346586   -1.23114585413283
H         0.69490007765654   15.09453943853633   -1.50863654905440
C        -0.30691497550230   14.63280335628849    0.34402708560112
C        -1.29791228079644   15.58310048500689    0.17408161227793
H        -1.38348705979426   16.10587321551992   -0.76548902514141
C        -2.18094714711822   15.83617115933429    1.21468259647491
H        -2.97668052968070   16.55562477053250    1.10331250703425
C        -2.00572556969308   15.15051928564051    2.40046587610629
H        -2.64487137373045   15.30981893588544    3.25193785333501
C        -0.97175988110088   14.22319556016710    2.49203142260356
C         2.74995722031208   13.18919609878191   -1.17237024543065
H         3.12688033107907   13.81491711647172   -1.99202690061375
H         2.08997609924288   12.40998401142533   -1.57566764147248
C         3.86410301714054   12.47290810777477   -0.47500551236202
C         5.07421154248632   12.23014887688338   -1.10412533088315
H         5.23624313430648   12.57910649800334   -2.11167844738348
C         6.05655981808697   11.52194347394489   -0.42670287560341
H         7.00036918359276   11.29882801681191   -0.89940660514711
C         5.80578633043165   11.12258048498846    0.87109631745131
H         6.53441974561667   10.58780920006582    1.45584056954501
C         4.56780865963132   11.42646199203329    1.43248612454328
N         1.95399461229996   13.95442595512007   -0.21326614916393
N         2.42727618061781   13.97432992100807    2.40949766330141
N        -0.14657812108733   13.93783344517012    1.48515026825476
N         3.60214663446397   12.05671399829874    0.77234770931891
Cl        0.61182000311732   11.30863628038349   -0.06589451664943
Cl        1.18381813297790   11.26107190120942    2.93135090185222
Cl       -0.73162988051830   13.42684012080631    3.97730311527881
Cl        4.27626061594661   11.00456840657603    3.05552185123591
Fe        1.57215928233191   12.70702276489377    1.34144248549630

