60
CSD_code = IMESAV | q = 0 | S = 0 | Stoichiometry = C26H13BCl2F15NbOSi | MND = 8
Nb        3.30852003259682    1.20337359220920    9.32507529081965
Cl        4.90098348527004    2.35575857779067   10.46091957819915
Cl        1.80053936129893    0.98087012155604   11.00448647878589
Si        2.51799385775905    4.86099245282110    9.32211368119308
F         6.66933561636102   -3.34663739913610   10.72874259773570
F         9.32135707151582   -2.89616924269597   10.68039300706762
F        10.33173237972219   -0.75521457959503    9.32266637991535
F         8.62016400194891    0.93413615204477    8.00736160342527
F         5.97245707183444    0.48277724788303    8.03004385862565
F         4.43418963809940   -0.23596820053704   11.84761002516084
F         3.50126973517304   -1.15642997666454   14.21369666110920
F         2.65869735721007   -3.75239022552307   14.44404887443119
F         2.74747316111489   -5.39227574509551   12.26672435113520
F         3.65358155920236   -4.47348754705566    9.90532215150385
F         1.90879665717608   -1.45285848066190    8.61007808627217
F         0.74425921602865   -2.60726233078941    6.46514220831277
F         2.19712066970699   -4.25229623628822    4.82354728882711
F         4.84327584367013   -4.66789208650583    5.33877614947367
F         6.02400288162787   -3.47240932682678    7.44497348317188
O         4.02442301566942   -0.34210614765598    9.36548656769828
C         2.56055685833796    3.23951247175088    8.32952772567552
C         3.62770573177228    2.73695342890905    7.53668501224016
C         3.20561442513620    1.53727617983815    6.90711526108223
C         1.87432146213444    1.28482769265992    7.31615107427851
C         1.48570670274845    2.33313879634982    8.18615831072620
C         4.22280996216406    5.69641251862113    9.17248949721319
C         1.15153726202700    5.92523731078098    8.52134419971630
C         2.06652578291749    4.44565845739240   11.12933942211630
C         6.22952330182995   -1.46269741222456    9.37792827972407
C         7.12484451256622   -2.29317753528406   10.04165319060016
C         8.49924956757895   -2.07295871490411   10.02873483554277
C         9.01837337668543   -0.98139951177337    9.33936761804902
C         8.14951138970347   -0.12540313976948    8.67146657255654
C         6.78510683910657   -0.38318859162060    8.70521353983763
C         4.08458979151229   -2.33206675524539   10.80440284408033
C         4.01913383040964   -1.52937859777579   11.93502290582830
C         3.54801114827324   -1.97737174817683   13.16215318199531
C         3.11811454152179   -3.29552415568913   13.27906239551834
C         3.16637310058827   -4.12962439769062   12.16660915456382
C         3.64061814274683   -3.63927385810422   10.95293192161299
C         4.00505001180563   -2.44479342674978    8.10379917731037
C         2.66134597821899   -2.26054408111625    7.80731506460188
C         2.03516195782150   -2.84965450065118    6.71763738187352
C         2.77411200198363   -3.67831014884427    5.87917543797487
C         4.12363792176013   -3.88754012950404    6.14571819130382
C         4.71811054044452   -3.26658200672876    7.24196729549670
B         4.60346332285718   -1.65231848669301    9.40507523406118
H         4.55078221168303    3.25974543627887    7.31964398005518
H         3.74841757275068    0.99928169004417    6.14047581258107
H         1.21801426573535    0.52478331482269    6.91373396874260
H         0.48399169908664    2.47706458535763    8.57269630775608
H         5.01949670534116    5.05183215427732    9.53334423336885
H         4.24831015985503    6.60881169093347    9.75913616621322
H         4.44713831229014    5.96739196709697    8.14473893615464
H         0.17230857918581    5.46478882942116    8.60950302511709
H         1.34101917469944    6.09580310824683    7.46608707451186
H         1.10124636941989    6.89412204988304    9.00565733992618
H         1.12646057414719    3.90107889785028   11.19208839778477
H         1.95464568579617    5.35115635029513   11.71792018463076
H         2.83318661226854    3.83751964838512   11.60742152465574

