49
CSD_code = INIJOG | q = 0 | S = 0 | Stoichiometry = C22H21Cl2N3Zn | MND = 4
C        17.05705483337612    7.74338272100700   -0.25194158966935
H        17.64125950108686    8.52844332088353    0.20774750629544
C        17.52119259928562    7.05746611764841   -1.36515092580558
H        18.48071322990625    7.29995688292212   -1.79207265315292
C        16.72457453979300    6.05840531989609   -1.90764931965575
H        17.05281418821083    5.50119443797193   -2.77236872832218
C        15.50341416930134    5.78792735370452   -1.32107633954404
H        14.85590963705401    5.01808264837348   -1.71212111170395
C        15.10753302190877    6.52690644209421   -0.20101095378849
C        13.83988766485986    6.27928877081069    0.44281410186656
H        13.21996381679925    5.49840469097254    0.00311753023209
C        12.29966896535232    6.80000996263857    2.14605232976196
C        11.18110476769909    6.10915464694114    1.64741367272310
H        11.21204269543562    5.64965944879733    0.67080769926749
C        10.02457883020369    6.04392532870801    2.38102682400026
H         9.17081436661283    5.51827042482717    1.97646286981154
C         9.90975399203222    6.65164034344192    3.64446961701682
C        11.03173871144601    7.34229757416707    4.13195715244670
H        10.99140056657952    7.82396747347235    5.09557475919939
C        12.18801137018368    7.42016312501546    3.39988389512466
H        13.04662098398590    7.95548300510227    3.78600614663981
C         8.66533690756035    6.54431170489530    4.35383623374370
H         7.91109228991864    5.94871686699445    3.85684089014830
C         8.37369746621104    7.11913316633594    5.54103186864974
H         9.12584415660539    7.72698302788575    6.02640520456203
C         7.13405592544880    7.02758963176503    6.25944975089356
C         6.03468367556180    6.26641061141666    5.83874889599897
H         6.09252135589741    5.70176435635837    4.92095969854162
C         4.87165845561993    6.21521643322948    6.56584770466476
H         4.05653307553503    5.61982853184736    6.18837688270357
C         4.72687036679567    6.92961430488216    7.76980810478699
C         5.82856611196430    7.69347027751254    8.19574110610467
H         5.78143374303405    8.25099433248719    9.11655685352228
C         6.98768039403562    7.73436604009242    7.46221488139792
H         7.81464463270674    8.32933498607334    7.82360693907543
C         3.39205470614217    7.71836663250530    9.65205565761824
H         4.02299871074426    7.39030228324662   10.48525561984037
H         2.35386034412527    7.67722196827483    9.97264281706342
H         3.63167835826240    8.75876267762942    9.42058332606943
C         2.50842114678070    5.98000992378762    8.12047191314531
H         2.88833142573667    4.96233843538153    7.99987872052005
H         2.02676111928514    6.28723341442946    7.18609461849157
H         1.75470281029418    5.96616596444032    8.90393750269563
Cl       14.49938184871375   10.35720167625714    1.85027903605393
Cl       16.20684313415327    7.22027584329809    3.70146003570115
N        15.88993010532124    7.48685031461730    0.30812280841944
N        13.49202195088048    6.94237837636291    1.48533930128334
N         3.57009373196937    6.88340974814215    8.48979989992800
Zn       15.06444959958404    8.25261843045580    2.11711124563760

