54
CSD_code = INITUU | q = 0 | S = 0 | Stoichiometry = C25H21Cl3N2OPRe | MND = 6
Re        9.09746809103491    7.50419223606318   20.76651259209549
Cl        9.23975672329493    5.53047078125831   21.92733216492617
Cl        7.89814771559519    6.47131919169158   19.06253398923882
Cl        7.15683734487807    8.18941567362740   21.78968110499270
N         9.21598407175954    9.20151316824395   19.58032312430965
N        10.84423950363737    7.18973762267269   19.70690529862244
P        10.29321053692017    8.59578190840489   22.56629708960214
O        12.31337443919340    7.96942344556028   18.19581022818834
C         8.32482810359905   10.19884560542407   19.52421905688465
H         7.48099499032249   10.10921874202849   20.19595189333925
C         8.45131215024604   11.27616333579237   18.67864797536552
H         7.69458741559281   12.04346530300169   18.67669123092114
C         9.55664027698745   11.35959956872622   17.82411682755958
H         9.67239629349102   12.19724638123034   17.15490512108964
C        10.48205269164766   10.34536488698514   17.85436097630443
H        11.35324963381822   10.33657710574505   17.21937280051139
C        10.28410092640159    9.27262852589409   18.73207519742090
C        11.14928411226362    8.15798751946090   18.85058680303129
C        11.86717653068708    6.27387792671946   19.60748005579919
C        12.78241284635234    6.77845170257374   18.66401859967195
C        13.94474216086103    6.10845626287007   18.33708603208149
H        14.63605929714633    6.50781107796510   17.61353334224627
C        14.16447248027462    4.90392028843527   18.98236620413990
H        15.05952364313016    4.34482873892551   18.75619738765803
C        13.25813137089011    4.39110493630385   19.90941586197142
H        13.47057818806117    3.44300632322952   20.37894291942997
C        12.09641154769730    5.06006636374461   20.24077497247033
H        11.38460842614260    4.67389976981138   20.95321409592790
C        12.06382024942229    8.54713291253007   22.17389643614137
C        12.68121424820669    9.54398386953685   21.42565202213385
H        12.14604106929269   10.45130483932694   21.18229161288534
C        13.98311528705468    9.37514791830350   20.98725816403389
H        14.45734033178792   10.15179119068310   20.40501625594347
C        14.67345679960104    8.21191774139534   21.28495953439636
H        15.68680493430908    8.08170128944171   20.93598291063796
C        14.06012372294687    7.21146479227741   22.02257073743659
H        14.59353399271045    6.29986849075201   22.24583275350393
C        12.75754253877778    7.37098846470719   22.45464124271021
H        12.25788249101358    6.58615327413219   23.00606978636236
C        10.19024998480677    8.00016410090316   24.27755343365755
C        11.22607474150503    8.24653529180131   25.17418250009691
H        12.12146376922597    8.75360191114160   24.84015959567348
C        11.10987673935002    7.83350324322012   26.48812511777316
H        11.91559496064807    8.02112933674113   27.18290437394815
C         9.96362250176950    7.17998994570533   26.91291233161245
H         9.87981095175063    6.85540076693427   27.93956849773217
C         8.92834980912946    6.94413274074519   26.02394014287960
H         8.03490946965211    6.43701531118935   26.35500399311925
C         9.03707103954902    7.35425363428410   24.70698880808499
H         8.23400477156400    7.17304150475893   24.00791885378282
C         9.87167404990305   10.36245080068715   22.79210901525303
H         8.83549540868259   10.39631229910092   23.13005628879714
H         9.94928095050916   10.90323658229032   21.85061109110281
H        10.52296367478038   10.80980335491529   23.54234155453579

