42
CSD_code = IPITOQ | q = 1 | S = 0 | Stoichiometry = C15H20Cl2CoN4(1+) | MND = 6
Co        2.85233627806927    9.59102886980964    2.02309878782327
Cl        1.41912696527548    8.32725625270765    0.99682789118897
Cl        3.35001348458116    7.92112379556511    3.31076356307421
C         5.61351368813494    8.85680862101713    1.03485694046397
H         6.19037871338971    8.58998108461045    0.14309787924263
H         5.77675466434176    8.08950303923435    1.79418112240055
C         3.19924456062416   12.24727079089379    1.21602146166256
N         2.53076899723386   11.14590696971277    0.86774335083392
N         4.15392785351264   10.83753637613150    3.02726861099761
C         3.16344804740240   13.40277792066254    0.44598302585863
H         3.72110815141097   14.27156348137314    0.75840911434651
C         6.09237441489893   10.20254668690775    1.56990217738908
H         7.18167238329025   10.18919183909929    1.60831640569654
H         5.79330950181995   11.00243423785207    0.88916414525365
N         1.60993326420715   10.22122230990890    3.31749428952023
C         1.70413390173890   12.27636673303498   -1.06029699610725
H         1.09586362486585   12.24104601076427   -1.94877788690238
N         4.17981959545017    8.88203360448301    0.71230431246693
H         3.86976959015097    7.91492171158816    0.57980195578536
H         4.05035231431703    9.33606980308574   -0.19423142693705
C         5.57387861318413   10.45600910407471    2.98329488717523
H         5.68704203747058    9.53240183970199    3.55323663396684
H         6.17338306464806   11.23580686211632    3.46928696511174
C         2.40579365450593   13.42123858734235   -0.71223189781713
H         2.36357370046342   14.30676495630679   -1.32630976230429
C         3.96319877167670   12.20696814961378    2.50775351981307
H         3.39420069948892   12.79916130939310    3.23375842399970
H         4.92941203342115   12.70542159801631    2.37811461422224
C         3.67070471696064   10.76561081696146    4.41600048957286
H         4.00722605736341    9.81660253146584    4.84703479802728
H         4.06855144109434   11.58496945305044    5.02583046419436
C        -0.53718828531753   10.53934258652541    4.29441134643901
H        -1.60545796810297   10.43356825922766    4.20205062226729
C         0.03776394369395   11.06486941526548    5.44042083558801
H        -0.57085775200782   11.37998941137971    6.27307028135830
C         1.41747739919960   11.17493445554657    5.49400723836903
H         1.91110182724148   11.57736457730624    6.36437047300977
C         0.28198765649688   10.13311742635469    3.25646722019717
H        -0.13727813404236    9.70631151621524    2.35673845899334
C         2.17334120172503   10.74068551106257    4.41639084067873
C         1.79726413361324   11.16360962829046   -0.24615339510913
H         1.27083119250746   10.24746186634064   -0.47747178181158

