60
CSD_code = IPORUA | q = 0 | S = 0 | Stoichiometry = C27H24Cl2N2P2PtS2 | MND = 4
Pt        8.48364742976082   12.77727006433642    3.10671401482925
Cl        7.26376372627421   14.44620548842553    4.13926298787195
Cl       10.63271423972958   19.51597304638326    1.16897235699759
S        12.43733026734580   14.96416281580128    3.69377182076299
P        10.64187916568401   11.18474374213598    3.92960054858670
P         6.49284584117840   11.68996078767106    3.02409631415253
S         9.75906664308831   10.95623394651808    2.12829229799276
N        10.12975482403000   13.99728606057864    3.03333400795381
N        11.57239044794303   12.49431660297448    4.15125105157585
C         5.61180924166070   12.49150702287818    1.65429822153860
C         4.23240678121659   12.63556524755781    1.58636224817888
H         3.60387531710155   12.26834272307029    2.38400814585935
C         3.65908322357171   13.26485379171821    0.49463400535947
H         2.58610486654335   13.38016562966325    0.44559646636633
C         4.45454101811836   13.75143984311593   -0.52931679907685
H         4.00049954571004   14.24617340998545   -1.37505712530571
C         5.83195991413435   13.60993366441771   -0.46641131962112
H         6.45332461484282   13.99349432834381   -1.26202910623172
C         6.40796537887533   12.98233018163540    0.62169151271695
H         7.48898355921614   12.86205875745179    0.68657711330808
C         5.35916378540610   11.72533840215510    4.45162705841634
H         5.10512057080591   12.75910274216089    4.67718955422624
H         5.87072253474077   11.29308332866229    5.31111764771585
H         4.46267346426121   11.14538913747417    4.23530242190938
C         6.44906326503538    9.92426368927425    2.54074816324284
H         7.07309832251344    9.77982747997843    1.66068078631516
H         5.42416111059019    9.62747142824224    2.32105584698249
H         6.84280857424253    9.32138875522141    3.35721263883880
C         9.41540830360702   11.01809537155357    5.27717360173330
C         9.08075848309430   12.12065783783085    6.05688985045038
H         9.57846819413733   13.06850126281947    5.89561305364983
C         8.14062812489076   11.98317033788499    7.06273212987620
H         7.87273966548660   12.83707473866954    7.66572081395233
C         7.54468540776076   10.75212887734635    7.29112025852284
H         6.81227138830754   10.64736950061032    8.07818978365296
C         7.88847443512442    9.65234003312593    6.51934008478917
H         7.42745214440399    8.69334464766610    6.70700315970054
C         8.82375604731665    9.78254203586404    5.50844915759348
H         9.11033885990720    8.93472956234809    4.89929171897003
C        11.79511131988352    9.81998563360919    4.20228292157281
C        12.57917208528581    9.87699509137733    5.34743564038469
H        12.48494109899146   10.72963476741555    6.00467981976869
C        13.47195099763944    8.85694466198006    5.61459780763883
H        14.08706824199177    8.89508080739548    6.50153370180301
C        13.57783672223171    7.78416467991255    4.74181074144940
H        14.27617832932659    6.98736481566765    4.95195451032843
C        12.79623217726329    7.73205916755685    3.59974965231164
H        12.88572090014123    6.89824467309674    2.91904703943034
C        11.89940698671312    8.75065015575790    3.32686085713041
H        11.28662949653040    8.72651228708597    2.43597845187511
C        11.25316091005084   13.65884140684632    3.63430921647868
C        11.31846678112353   15.98506150622129    2.82102284518306
C        11.49196559938094   17.29215499307256    2.40848930178993
H        12.40000234507940   17.82964502331299    2.62615862088893
C        10.45652092750782   17.88148257467351    1.70281889679289
C         9.28447928414334   17.19291796438051    1.40490775503769
H         8.50476528318007   17.68619968385427    0.84709235331400
C         9.11922780234160   15.88801314832963    1.82071546923279
H         8.21177286589095   15.34241681564554    1.60051143416401
C        10.13565111765912   15.27709381931057    2.54783646912710

