51
CSD_code = IQIJAU | q = 0 | S = 0 | Stoichiometry = C20H18Br2HgN6O2S2 | MND = 4
Hg        1.08458244296736    2.03662410485382    1.63375727301721
Br        2.10675513382315    2.90384878831198    3.66911999058600
Br        0.94052785097282    0.48325584779256   -0.25379450998587
N        -1.08256224357236    1.25525458331224    2.75259248947498
C        -1.65731421709610    0.11470779803436    2.36239088046365
C        -2.68697872006112   -0.44695371216562    3.09994060652689
N        -3.14974545417979    0.12267772122385    4.19823833034658
C        -2.59436835467813    1.27327771519199    4.57454512640394
C        -1.53931057556377    1.84579090098211    3.84716146285974
N        -3.13095213080522    1.81265767235887    5.72180899661255
C        -2.88546309182459    3.05473828294574    6.27699247654730
O        -2.13959328907299    3.85941018570001    5.78923662598553
C        -3.68781387826560    3.26397753261691    7.55350914065998
C        -3.31284004241501    4.54785453839288    8.22517704128496
C        -3.58887988820865    5.82727698073305    7.67639068269259
C        -3.13078457225681    6.83826151751784    8.45263582229689
S        -2.35251489442447    6.26093229728989    9.87218938140327
C        -2.64623166853414    4.63497077789685    9.40726935959184
N         1.69911425247746    4.06840836642204    0.20875906554193
C         2.20553858211435    3.89851832895382   -1.01521016589322
C         2.80018078063924    4.95418472289299   -1.68763980350491
N         2.87567847298234    6.16351548548680   -1.16156527816162
C         2.34427228082626    6.34113127002512    0.04643165428787
C         1.75511521106964    5.27739824432512    0.74718971195610
N         2.44642067332795    7.62347449918512    0.53304818715588
C         1.86688812778600    8.15371796197026    1.66404933462590
O         1.13079191047750    7.53894400181301    2.38996183244410
C         2.25071149562037    9.61043642623182    1.87334630989510
C         3.72746989317536    9.80781267970319    1.72912245741741
C         4.67574326811199    9.23352759688097    2.61780105553852
C         5.95402726693926    9.52366829156362    2.27643309056455
S         6.04344184322447   10.50166243068273    0.86522965085813
C         4.32977009893714   10.51258904404442    0.73185455188738
H        -1.28548411974933   -0.34894752630801    1.46016989808745
H        -3.15260526434242   -1.37771544145659    2.80976726768457
H        -1.07449749771468    2.76783346428587    4.16556136857942
H        -3.83136822995300    1.21702112910026    6.14680028415891
H        -4.74856039707451    3.27866260703823    7.28421000774987
H        -3.51344767394301    2.42120900488934    8.22565301239963
H        -4.09587833299909    5.97232612696941    6.73993277624295
H        -3.19767293444630    7.89389994939892    8.28187693285811
H        -2.30782611843577    3.83675436730341   10.03792327332891
H         2.13632554451171    2.91226836789604   -1.45117423020709
H         3.23179332410098    4.83129556868947   -2.67049426356104
H         1.34713452348895    5.41757178519601    1.73777368692658
H         3.00003201096371    8.23824537999484   -0.05326424448331
H         1.91793834050992    9.89740270244205    2.87250153607159
H         1.71409613503331   10.21847235791011    1.14123444718926
H         4.39946448157264    8.63462808625241    3.46665810618674
H         6.85879574336384    9.22514221746528    2.76653696902376
H         3.86738390060986   11.05567696975015   -0.06913965961289

