51
CSD_code = IRAXOQ | q = 0 | S = 0 | Stoichiometry = C20H23BClN5Pd | MND = 4
Pd        8.34484842609088    1.41734594732651    1.75902605735500
Cl        7.44537598554964    2.19318957587657   -0.15676594333449
N        12.13159043320489    2.57105645304642    0.98569711604276
C        10.68706450657115   -0.73940298044417    0.92199634332887
H         9.67076852629526   -0.38047607353792    0.65639659950690
H        10.60231795490081   -1.77685873390321    1.24313862312641
H        11.27365441157690   -0.72779675377187    0.00594467608947
N        10.52480342278469   -0.63302151533367    4.50060296685401
N        10.01990493773837    2.39016403995157    1.44682604662054
N         9.16393934801708    0.69809620904469    3.45652486300499
C        13.45138186845249    0.70719116279063    3.51066390270372
H        12.86861605875127    1.49322613027280    3.97512835025564
C        10.35117433828484    0.10419844425082    3.37872072107354
N         6.65978442415257    0.46767718106534    2.06106474507159
C         5.33211943263653   -1.50795107948436    2.02872333309699
H         5.28513683716203   -2.57912106522476    1.91212610024135
C        11.61997812325171   -1.50025705324092    4.83476860897343
H        12.03180133915470   -1.94007265779967    3.92982261507321
H        11.26081587925157   -2.28997331689907    5.49475001138781
H        12.41661227385419   -0.94997687902729    5.33959309218230
C         5.55890254820348    1.18813922195146    2.28804015484830
H         5.69647567866918    2.26514907736470    2.36902711286829
C        11.18835125082678    1.75689126085495    1.51071086229715
C        12.85686490373240   -0.06580081287603    2.51096068579889
B        11.32898656226386    0.23891448998737    2.08314146461763
C         6.54766212093886   -0.85450609575259    1.93401280013894
H         7.46761721670607   -1.40184032620158    1.74638160525778
C        13.52428722196093    2.29526779750737    0.76865248357993
H        14.11372558246674    2.51887665191494    1.66043561228650
H        13.88295871750140    2.90938404945886   -0.05700902074487
H        13.66078262815737    1.24453951955121    0.52447270591335
C        13.64358108164999   -1.06475510696612    1.94245629714072
H        13.22385245788051   -1.68787769279583    1.16561137324764
C        15.51408438653775   -0.50082628238868    3.33597528457886
H        16.53428400081297   -0.66753523510253    3.65142919467494
C        14.75545174760841    0.49936565277584    3.92124765971650
H        15.18566226788198    1.11691095787908    4.69879453171635
C         4.30710533518470    0.61070041459200    2.40023796474694
H         3.44255215987143    1.22930242696562    2.58163097296822
C        10.21263236367186    3.61958789902956    0.89676606885248
H         9.40586871202521    4.31112199376096    0.73726703883405
C        14.95130473677071   -1.28303456863106    2.34332932638400
H        15.53555057350612   -2.06631924724501    1.87970595911673
C        11.53486460435404    3.74273558349197    0.60761540898911
H        12.08648111808959    4.54643530643699    0.16420420704285
C         9.42821775076892   -0.47400758563143    5.30157639972451
H         9.34009803261514   -0.95706154662315    6.25341434861110
C         8.57996211348719    0.35495981617072    4.63715829264076
H         7.61566355126509    0.72448243021585    4.93493416294275
C         4.18569915968934   -0.76452517469311    2.26657536169901
H         3.22208088718456   -1.24431191005528    2.34209485085416

