38
CSD_code = IRENOK | q = 0 | S = 0 | Stoichiometry = C19H12Cl3N3Zn | MND = 4
Zn        3.04567244979386   -1.21853979786111   10.58933628532466
Cl        1.95998412454149   -7.35727823382719    6.83449074760493
Cl        4.98710655250355   -0.62973983521443    9.77454846979644
Cl        2.40064399268178   -2.49841616188127   12.26915560727841
N         1.74461801253402   -1.97701214082637    9.10007319932981
N        -0.47251251266174   -1.69759223107576    8.36903020213978
N         1.57135558773510    0.32943235054319   10.50617038633006
C         0.60728117366650   -1.31595481531204    9.05651675396380
C        -0.44895735167702   -2.84148851920046    7.71918915558884
C         0.72931681608889   -5.02355462350382    7.31609511626848
H        -0.14216734340164   -5.45934425308559    6.85409056477239
C         1.88680477408543   -5.74927823527353    7.44565354496863
C         3.02473402973246   -5.21072678569559    8.07416348572623
H         3.91838632744193   -5.81015011156711    8.14866329656390
C         2.98266812665254   -3.95238680231363    8.60421879686485
H         3.83207167720946   -3.52500812982246    9.11871010226007
C         0.67640525176716   -3.71294664395283    7.81950593725629
C         1.80308295970052   -3.18827371055378    8.51333304278551
C        -1.62224800936706   -3.14602013646482    6.89834582012405
C        -2.89388596506163   -2.86489434778177    7.39621015138306
H        -2.98454021425967   -2.45537618137655    8.39024546957519
C        -4.01414801250437   -3.13183558650936    6.63348613213617
H        -4.99655475592677   -2.92480501694608    7.03034750598250
C        -3.87808509794178   -3.65946102147552    5.35914782662152
H        -4.75383476423533   -3.86374068972704    4.76193960597372
C        -2.61617016628183   -3.91342315014461    4.84677446955488
H        -2.50746318366643   -4.30617775716050    3.84705201304903
C        -1.49094635970325   -3.66279178205145    5.60986913083053
H        -0.50810987588255   -3.82761498673374    5.19371723443525
C         0.51506242249793   -0.04327485588956    9.78224347662346
C         1.52521418418943    1.46825206106299   11.17678391927663
H         2.40993679242701    1.72067736175514   11.74459696697450
C         0.41493459174825    2.29959698972698   11.16268959108707
H         0.42043136022705    3.21887504831978   11.72597745452669
C        -0.68990590566991    1.92025613283157   10.41560995270310
H        -1.57240333983167    2.54130722882981   10.38184353410232
C        -0.64073847824018    0.73065537888426    9.71040816468889
H        -1.46363987090071    0.38335399126744    9.10736688553305

