56
CSD_code = ISAPUO | q = 0 | S = 0 | Stoichiometry = C18H32ClO2P2Rh | MND = 5
C         2.99619129233229    1.45511543231363   14.21436461015600
C         3.94508844836808    1.10522680123318   13.25884535949979
C         4.75092826727143   -0.00934886221046   13.42668859447003
H         5.48388645571530   -0.26159239712821   12.67651922645478
C         4.59200212734850   -0.78734687439445   14.56320174713220
H         5.21284705622458   -1.65912425835606   14.69906167687724
C         3.65171580555368   -0.46453051391197   15.52975077530916
H         3.53071149370617   -1.07054924070335   16.41394578487458
C         2.85615452127781    0.65436900887928   15.34389228379434
C         4.48703942150315    4.57751050336104   12.10207361052775
H         3.97624651576049    5.52895714527346   11.92165615984796
C         5.54766777543429    4.33057983711835   11.03788141446395
H         6.36515289369569    5.04028458775315   11.15816308165433
H         5.14148114526505    4.44962141809143   10.03628553868364
H         5.94997461791782    3.32386192593768   11.13401099180680
C         5.08748167072539    4.60308917574265   13.50545317998362
H         5.56562745080394    3.64996722877472   13.73656610560554
H         4.29679071079511    4.78859493188578   14.23938157030309
H         5.83015201707840    5.39384007198361   13.60073897452761
C         2.51706716128641    3.20732725459276   10.39630877307943
H         3.35641206102179    2.96132629619259    9.73547907036853
C         1.90868346112188    4.55689556600436   10.03668904132412
H         1.35844529819000    4.48755965429669    9.09980691658001
H         2.67303220054567    5.32305269270093    9.92647194060097
H         1.21795163796896    4.86999192537436   10.81910323733595
C         1.47675284355841    2.09518314092868   10.32149808961322
H         0.62845170140483    2.33850247090676   10.96155248032728
H         1.90201249173857    1.14960618283696   10.65558392247180
H         1.11756008571072    1.97319168378125    9.30105784875958
C         1.84038680107202    3.42696723217207   17.49805277838124
H         1.30530247642558    4.38209901479660   17.50194425739468
C         3.31469787356899    3.69006786761901   17.20034589608346
H         3.75689259555838    4.34438499312101   17.95014301632812
H         3.41369850590728    4.17394107326539   16.22251237019354
H         3.87568924627456    2.75477308519066   17.18312107471462
C         1.65472728418820    2.70309239551185   18.82467191595604
H         2.05213484806482    1.69174010729476   18.75958219924108
H         0.60558762382584    2.64809137642161   19.10510979695199
H         2.18878877798587    3.23162401986901   19.61326510875947
C        -0.55477164184154    2.03348375764986   16.48980104016171
H        -0.53070801046242    1.44306870041878   17.41303153829564
C        -1.12926813334963    1.18365982023304   15.36174075638387
H        -2.13717692526255    0.85201670550751   15.60513752012593
H        -0.50675078988200    0.30683983730924   15.18803660783783
H        -1.16831805275399    1.76846697315100   14.44238739208170
C        -1.35361623666813    3.31765959825394   16.67466327075710
H        -1.20008779818549    3.97348052490305   15.81811944319618
H        -1.05113615267872    3.85080771090807   17.57342272542992
H        -2.41673040011702    3.09591905165536   16.75148539738964
Cl        1.12697629954424    5.25925125829272   14.05609569978708
O         4.06996282336178    1.90340372728255   12.13264056405394
O         1.90205279672745    1.00798364518350   16.28561989506129
P         3.16686259967058    3.26583945079830   12.12635596746189
P         1.18775707616752    2.45835484839801   16.04795051426563
Rh        1.93563078175944    3.11761360273960   14.01903872134442
H         1.01070710180736    2.16460683277465   13.35919252593173

