44
CSD_code = ITUGOV | q = 0 | S = 0 | Stoichiometry = C11H26Cl2N4Zn | MND = 4
Zn        1.94228592970404    7.91139729609816    2.71428346241967
Cl       -0.18543204010653    7.30941092805870    2.76184541889670
Cl        2.50839697594071   10.04204979544167    2.29484750407620
N         3.28066289023376    7.02535089408525    1.44744019061875
N         3.29635417732970    7.24169444248382    4.32942901999753
N         4.24209075498620    7.72485632512815   -0.58586294880466
N         2.21463381299581    6.59654233135104   -0.54197743907369
C         3.24284215250278    7.15866546987131    0.15063190369630
C         1.52790199511944    7.04954310664404    6.08778147940028
H         0.96476059056031    6.30251402420965    6.64157578261098
H         0.84079002427441    7.55926689688155    5.41541828203342
H         1.92823488745231    7.76835689863394    6.79748072964614
C         4.52109325415593    7.12270652445837    2.18344054320511
H         4.84005703247397    8.15948979828888    2.31861128933168
H         5.31520047588246    6.58043050052664    1.65729600002326
C         3.89805090377890    8.42175344835865    4.97537325848478
H         3.08485074959243    9.05284662474290    5.33704415203390
H         4.41208615504879    8.99059688250970    4.19965660585023
C         1.38892355428481    5.58687217958753    0.08422919090832
H         2.00270659041642    4.99156297962341    0.75536796284308
H         0.98413745648043    4.94706779259000   -0.70110659852101
H         0.56109141583121    6.01526894285522    0.65443740485404
C         4.28784912471099    6.48727221013336    3.55395001393811
H         3.89506562120779    5.48151049646395    3.39004951813804
H         5.23885611080062    6.40411687322466    4.09080734084207
C         1.53838170249040    7.34467091299461   -1.58125361186264
H         2.08232608690329    8.25607520484661   -1.81079106729451
H         0.53844814820884    7.62489851399892   -1.23776762893810
H         1.44068239327871    6.73991101818570   -2.48594346703396
C         2.62229952130613    6.35533130882326    5.29132753603815
H         3.35737210349128    5.90636536766315    5.97349283125133
H         2.16070170350840    5.55124649203663    4.71258724938453
C         4.56794976829472    7.26685290024678   -1.91515420830129
H         4.10867161442601    6.29804478229976   -2.09301569384348
H         5.65377912447784    7.16176695078760   -1.99047243514849
H         4.24126392491820    7.96695274949844   -2.69079034914707
C         4.87797311475822    8.96099831356836   -0.18381735174188
H         4.29817326796463    9.44219896311776    0.60258154277545
H         4.90364381979640    9.63779165718487   -1.04077320398103
H         5.90505318439939    8.79717193011372    0.15546653265226
C         4.86705132113808    8.15041239908148    6.12538332240051
H         5.28458946618101    9.09967593120065    6.45094116811503
H         5.69247344100954    7.50989766522061    5.82383381299979
H         4.36697569775844    7.69489327691098    6.97591495424400

