57
CSD_code = IWADAM | q = 0 | S = 0 | Stoichiometry = C26H27ClNPPd | MND = 4
Pd        7.59576277399803    1.50673210800301   13.31777107701774
P         8.98162852462963    0.35745480578830   12.02646387328834
Cl        9.30952387446935    3.09913697951965   13.42135343474310
N         6.27325402107803    2.55648714550207   14.58405657508213
C         5.13040638272480    0.46431953410861   14.21992377456703
C         6.01766687684384    0.29434138179011   13.17159612695784
C         5.66035843639389   -0.55064314695744   12.10501643428809
H         6.33485974411644   -0.66894514512335   11.26256479468849
C         4.46989333584460   -1.22444538185553   12.11458500904155
H         4.19613921488890   -1.86666435182235   11.28808748739003
C         3.57744280404390   -1.10742451065860   13.19888855704835
C         2.36426454031441   -1.82561371159786   13.23154172904206
H         2.12692885486020   -2.47175749343919   12.39768043513777
C         1.50886749747588   -1.71533496411122   14.29029108728507
H         0.58218625239308   -2.27025049200587   14.30923866794697
C         1.83606465958931   -0.87833621535016   15.36713657083947
H         1.15774372148380   -0.80370347742248   16.20517705878608
C         3.00131365553322   -0.16442752971086   15.36465091155184
H         3.23471972146876    0.46302478734566   16.21191974809823
C         3.90794566397097   -0.24786737358551   14.28376972025726
C         5.58784808421797    1.44172463386735   15.28360949096063
H         4.75034649600893    1.85267864190522   15.86891681424761
C         6.55605252102517    0.69966962402057   16.21581929153736
H         7.49634714820890    0.49164167547997   15.67316358645125
H         6.11150634567803   -0.25111489262324   16.50422813691335
H         6.77307189070126    1.26450373539446   17.11985230171723
C         5.31804247574392    3.31926021122162   13.77936585138111
H         4.60317779703596    3.85302846168704   14.42206536811813
H         4.75867754993548    2.65455950232128   13.11755997981256
H         5.85998355585763    4.05259415235225   13.17638927799694
C         6.91773614156773    3.47162566652496   15.52470655922492
H         7.32419569970927    4.32117868141587   14.97541265447367
H         7.75251357854289    2.98258750963882   16.02671379298605
H         6.19708491272742    3.83620999750014   16.27006680635631
C        10.71359850550935    0.49163598184898   12.26784369458476
C        11.88342463245300    0.66684351282143   12.50162788337536
C        13.28832388972570    0.86680949427834   12.75498506912320
H        13.68534443300900    0.03662007708576   13.33889700312841
H        13.42390089283099    1.79356293488390   13.31181697859861
H        13.83241119413353    0.93460600964075   11.81306445096284
C         8.86247200467030   -1.38486761209874   11.78187128610498
C         8.74417852328295   -2.58178335216086   11.70031173017490
C         8.60808276365293   -4.01224143671338   11.56721287998835
H         9.39967254818308   -4.51418326727866   12.12299615797465
H         8.67360833976424   -4.29919050504984   10.51780822754549
H         7.64201793388323   -4.32560020741772   11.96259881275131
C         8.76377690306599    1.01172954243340   10.34058520879230
C         9.50930627883272    0.53767127589864    9.26797555523648
H        10.23593334977143   -0.24688847585466    9.42939772223966
C         9.31552603910693    1.07649264769507    8.00919739384633
H         9.89405214771936    0.71324249529801    7.17216123259209
C         8.38287637295428    2.08463259230257    7.82038525774557
H         8.23789600557998    2.50481556763250    6.83583490839789
C         7.63896772396217    2.55836556522982    8.88936466221626
H         6.91619869914854    3.34658743977082    8.73667587529210
C         7.82685500293952    2.02261630414538   10.15093582454910
H         7.25302106299111    2.39219286627298   11.01266919941606

