70
CSD_code = IWIDOI | q = 0 | S = 0 | Stoichiometry = C28H35ClIrO4P | MND = 4
Ir        6.97853749223356    0.36549089271031    5.39346616123366
Cl        5.45106015895534   -1.10009036817085    4.57509287526548
P         5.19335321612644    1.28994686885403    6.61578512636731
C         4.16515759194439    2.39107701982303    5.52597323534980
H         3.63750637950264    3.12254112192325    6.14578547428040
C         5.15609665191744    3.11265857458623    4.60767747101246
H         5.90034750483927    3.63672154590511    5.20946504789860
H         5.68804304248093    2.35995926124071    4.00835296685758
C         4.43846873983083    4.07734322015580    3.67094874367478
H         5.16336913990573    4.57344109447454    3.02125860925101
H         3.92869345640659    4.84480393758490    4.25988466306372
C         3.41605716459398    3.32007537055608    2.83006537737549
H         3.93190668752237    2.59016881300407    2.20263368836509
H         2.88328122005987    4.01112887348252    2.17342488183670
C         2.42779153623696    2.59622118790416    3.73765173958778
H         1.87972232972694    3.33294471991286    4.33254414333805
H         1.70274443326833    2.04597538795173    3.13436065030009
C         3.15002743383150    1.62876317444454    4.67380804806333
H         3.66211081559140    0.86360156253380    4.08674196400532
H         2.40928596832618    1.13224914037837    5.30281597708673
C         3.98452201111508    0.06794080522887    7.32145905284841
H         3.55972867839580   -0.42662393423081    6.43914075159486
C         2.87251923618740    0.71340711968926    8.14156099652000
H         3.29929015678094    1.18995127014493    9.02707501647421
H         2.36593040302505    1.48817085093032    7.56306215207801
C         1.86331445531287   -0.35076958298194    8.56815044813439
H         1.40137588731058   -0.78958304723833    7.67991818485559
H         1.07124775544806    0.10874652435978    9.16409347325400
C         2.54934787730719   -1.45038575133127    9.37308697592438
H         1.82220149107761   -2.21611802903473    9.65155033294727
H         2.95596452173296   -1.02344809465301   10.29325872496900
C         3.68177491351241   -2.07571210013187    8.56391500379994
H         4.18255758460859   -2.84473564155643    9.15576436615385
H         3.27366503488643   -2.55376250382467    7.67068517514844
C         4.68759350572025   -1.00470566713034    8.15078545383850
H         5.49280300901529   -1.45752518559182    7.56418076168884
H         5.12053364296645   -0.55892644012724    9.04977961850049
C         5.68909358032235    2.20503886043278    8.12870987508839
C         5.24005177755569    3.41189739085698    8.66805282290568
C         5.70137882706421    3.80447333967212    9.92319828989158
H         5.34132454434992    4.73827018760079   10.33096664846681
C         6.60398540186458    3.04437588739607   10.63895230222694
H         6.93925461225763    3.37326297673249   11.61130727286905
C         7.09877783653559    1.87650806541392   10.08295860657399
H         7.83619438190654    1.28765332525755   10.60786443146945
C         6.64391605333898    1.47527560167265    8.84453867597644
H         7.05212395576527    0.57680739893526    8.39268970838556
C         4.37405239729686    4.39687177780720    7.97571149346333
C         3.01456930410629    4.51760259539059    8.27673916574826
C         2.25481519388716    5.50183579699224    7.65189806188108
H         1.19998354111949    5.59892576783460    7.84988566487418
C         2.86526602738187    6.38140902614690    6.77712513151433
H         2.27201248832690    7.14585021347454    6.29812537994791
C         4.22173823306227    6.31457856010460    6.51593220448114
H         4.67158753197136    7.03440642046008    5.85199442724080
C         4.98526866079395    5.32468489282536    7.12437304250983
O         2.53261342007338    3.62459192790822    9.18672463238170
C         1.17003178997050    3.67936827444754    9.52864546123907
H         0.90431800072710    4.64208022177881    9.97670318067248
H         1.02091197821354    2.88871838556964   10.26215450354543
H         0.52736573301378    3.49210951256893    8.66209585089213
O         6.32868610567571    5.16540913570395    6.96535746206677
C         7.03126828347746    6.08706394278486    6.16698309472718
H         6.68064480927545    6.07459355602155    5.12990411529049
H         8.07012643877510    5.76304468168871    6.19890263968818
H         6.95401009773366    7.10322434723649    6.56612685754210
C         8.21414779385084   -0.56829822181590    4.33351485058526
O         8.86468170261508   -1.22724618776799    3.66040483482750
C         8.16662766247507    1.63766461742836    6.03744727708042
O         8.87324070751424    2.46380572966249    6.42000870100727

