67
CSD_code = IWIWOA | q = 0 | S = 0 | Stoichiometry = C27H34Cl2O2SiW | MND = 5
W         1.53590226364464    6.85334992883059    8.49047867410676
Si        0.78171807832205    7.27886073052226   11.61205270812510
Cl        0.36170837417719    4.98169878351140    7.57124849930591
Cl        2.52176015722206    8.76464702920744    7.38794253340856
O         0.02477986854074    7.75269137293589    8.50075049524705
O         2.95510417818310    6.03223837448055    7.87133562350126
C        -0.99664758179424    8.35946554033613    7.75218781985143
C        -2.36134344755981    7.89909998414585    8.27853196409745
H        -2.45708491013614    8.16233464999991    9.33009405336508
H        -2.44898175546574    6.81824269294922    8.18356869689491
H        -3.15958320621557    8.37400900745483    7.71498659792706
C        -0.85977500992231    9.88469198380445    7.85466435488820
H         0.15054559381863   10.18405860046016    7.57685420327218
H        -1.04722961694567   10.20683280549613    8.87569774847252
H        -1.57006718027830   10.37002358147714    7.19107306271427
C        -0.79750903739994    7.90776403450038    6.29116108928635
H         0.21645359749750    8.16377343979127    5.96710319815655
H        -1.50628492980127    8.40804594892523    5.63631398298415
H        -0.94652726083162    6.82944982693666    6.20850411554191
C         3.84319422397652    5.47851789283895    6.94493292654200
C         5.20170901332353    6.17555209356159    7.10468850434855
H         5.07245911818557    7.25015691769842    6.97565299952289
H         5.91058304866897    5.80723403148895    6.36890916822474
H         5.59170419480782    5.99118789062506    8.10443901549134
C         3.24767893354762    5.74474268863615    5.55109390938899
H         3.15709834174323    6.82145283000304    5.39583735254579
H         2.25863879782130    5.28603495370840    5.48618841455784
H         3.88214328971716    5.32844111062042    4.77354621477266
C         3.94419432925329    3.97159644511497    7.22112729993206
H         2.94817892496609    3.53048833727135    7.18079102098049
H         4.35377544831751    3.80859355517781    8.21655406200669
H         4.58242283161615    3.48923355985873    6.48658311198056
C         1.89055199265767    6.42752332068801   10.39283299847554
C         1.38304988615508    7.26811094112428   13.41215921713728
C         2.06175457614149    8.35109772580076   13.95937678074946
H         2.24269217532481    9.22314009531127   13.34633768203393
C         2.50004402367443    8.33266817187649   15.27135127351693
H         3.02327997172493    9.18645052512361   15.67885000375223
C         2.26747104877270    7.22120655726951   16.06348727262793
H         2.60688586287390    7.20437355252355   17.08927325674535
C         1.59573277508941    6.13172137649230   15.53426869487643
H         1.40951327115427    5.26152946069012   16.14829538047818
C         1.16109061588852    6.15943493369555   14.22185456377531
H         0.63203924608629    5.31024306685746   13.81328697034611
C         0.69060859977572    9.11760791403252   11.09842089095380
C        -0.36167699903609    9.95246073949276   11.46044776553179
H        -1.19411800288035    9.54261867341768   12.01478729758187
C        -0.36081266734282   11.29527922051094   11.12126057989694
H        -1.18823899760762   11.92706648849787   11.41301342376160
C         0.69946252277781   11.82998828513026   10.40738035903638
H         0.70139278428274   12.87673712225060   10.14085570428413
C         1.75893032306926   11.01631396351515   10.04155700919574
H         2.59173294806848   11.42520602920405    9.48816004762981
C         1.75210553584881    9.67525955909512   10.38951337438430
H         2.61571517042934    9.05220636775782   10.14730972799424
C        -0.99255909136413    6.58547731583803   11.67144998900115
C        -1.44592993856373    5.75480288159473   10.65397826877881
H        -0.76884129620717    5.52319985181835    9.83356554949893
C        -2.72228190229745    5.22065931737177   10.67731526430909
H        -3.05182083686471    4.57092346013826    9.87909701170000
C        -3.57437802605580    5.51628910905881   11.72836923381360
H        -4.57258982647732    5.10342140834563   11.75121020791272
C        -3.13834832282030    6.33828443425347   12.75435498039149
H        -3.79739311438347    6.56665537014109   13.58021874153429
C        -1.85777821387929    6.86162112514354   12.72651153970901
H        -1.51563470155752    7.48472042070087   13.54097264126270
H         2.70542993638411    5.83109059377103   10.80848287592915

