51
CSD_code = IWUDEK | q = 0 | S = 0 | Stoichiometry = C15H23ClCoN5O4S2 | MND = 6
Co        6.81307060724422    0.64911849530468   12.61309301195598
Cl        8.37119536615584    1.51955445399899   11.37149135682299
S         9.92900270698941   -2.02784599739977   14.30615662134857
S         8.88456496457463   -3.14474618026244   11.63238215393783
O         5.01518279849924    0.59959024856927   10.46986767062134
O         6.51123960037131   -1.43185179067108   10.61284467422867
H         5.86505559244898   -0.65627859842520   10.37540450407265
O         8.47936599262147    0.63330176283265   14.88010591298439
O         7.20134895414697    2.78823620726449   14.52302401471521
H         7.83884820487803    2.01596294040394   14.78556852511913
N         7.16249821050582   -1.00440022507486   11.72630553625645
N         5.41268137081357   -0.16349695665794   13.72866943815923
N         5.52572923351355    1.32280806567886   11.40048056891069
N         8.15711718418242    0.00098117147845   13.80602457901678
N         6.57962104988444    2.35277399121066   13.40004013981776
C         8.15357240250467   -1.66950933448300   12.21375240684923
C         8.67592839550878   -1.12962802185511   13.44963062990441
C         4.25345004674582    3.30540638688499   10.69610663271976
H         3.92263184941134    2.63385105148218    9.90710931407446
H         4.74642681316733    4.16625926400900   10.24811232435775
H         3.38829369158421    3.65545984747277   11.25752250056900
C         4.44287516235525   -0.89909022875473   13.18178516983117
H         4.42916986041708   -0.98341664741685   12.10377997095944
C         4.48480458918069   -0.62688750791207   15.87847243926834
H         4.54646638920626   -0.48693073751830   16.94572957457583
C         3.48247035656525   -1.39665719420066   15.31057512141299
H         2.73613634610684   -1.87723337254929   15.92421083476331
C         3.46572713857019   -1.52889644737767   13.93152816890571
H         2.70772764027926   -2.11263002184978   13.43453161091618
C         5.61356337240709    4.59097971928442   13.10770247194742
H         6.19864172776593    4.83032180502935   13.99124268294949
H         4.55911536691310    4.77209005648735   13.30942111756738
H         5.91894467532615    5.23724402317970   12.28721405159160
C         5.20196143399794    2.56780491081406   11.58394446965681
C         5.83169385737711    3.16566879576056   12.73127122828313
C         9.30350120739313   -1.93227128413985   16.02617146527567
H        10.10175597523640   -2.37167585448469   16.62184723592484
H         9.19068270104172   -0.87951123901789   16.27956221874176
C         8.00494498662340   -2.69788335997581   16.18783918327920
H         7.68537047347473   -2.66667077087495   17.22779729244106
H         8.13471424057802   -3.73644494303530   15.89103755218796
H         7.21959127422521   -2.25942646277509   15.57295511997897
C         5.42424349061399   -0.03035604658195   15.05673423631629
H         6.21655778208889    0.56360659838393   15.49181725881088
C         7.58142663543392   -3.94905555199579    9.29115361438748
H         7.57535466552480   -3.93133432382697    8.20372764075046
H         6.62558481863622   -3.57588968843785    9.64839416067321
H         7.71154229581045   -4.97626471376836    9.62450933699282
C         8.70926180014705   -3.07827955184290    9.80326417358108
H         8.58613044060262   -2.03613697052259    9.52327372295308
H         9.67581426034936   -3.43511977184148    9.44711435863398

