45
CSD_code = IXEHUP | q = 0 | S = 0 | Stoichiometry = C19H20AuBr3N2 | MND = 4
Au        0.83480010432979    5.60198288513922    8.07492231480986
Br        2.14169207377867    7.62650580343035    7.67409351598947
Br        1.04824674279693    5.86653109369978   10.46567464332722
Br       -0.84047709434468    3.83562048371159    8.34240855986908
N         1.54256235463871    4.52466432711468    5.34746328822286
N        -0.18295234607288    5.80683811116683    5.22898145227098
C         0.72520748467038    5.30209339625726    6.06853905427506
C         0.06326208499466    5.34972970799877    3.96437846312182
H        -0.54143267455683    5.63855969186379    3.13044653319583
C         1.14966738518976    4.54237962118365    4.03904405510995
H         1.67483401378818    3.99388033898957    3.28494454584389
C         2.63569404810791    3.77727353872499    5.88186013931038
C         3.87887158983281    4.38664124966213    6.04377761423054
C         4.17498162393886    5.76999073656741    5.55417596978977
H         4.95015622343975    5.72332341916360    4.78996857113716
H         4.55112708210800    6.38997436274287    6.36518914829884
H         3.30438553439748    6.26159231038769    5.12916821221311
C         4.88901979792780    3.65109151114301    6.65001618333473
H         5.85121505856516    4.11923572283079    6.79659578826206
C         4.69084112383537    2.34416256550446    7.06830674954882
C         5.79759885958239    1.58241772110037    7.72666413912764
H         5.41039728649915    0.72212807443050    8.26604088467730
H         6.34257218854461    2.21947959879104    8.41946490328246
H         6.50216869203754    1.22624079230854    6.97477116584388
C         3.46071284209286    1.74669034282614    6.82588337574685
H         3.30300927466744    0.71788429781868    7.11348971820651
C         2.42141997389719    2.43922331668516    6.22604652058497
C         1.11810601239961    1.76294696575543    5.93476784917146
H         0.85267406025438    1.86788012692260    4.88283541385686
H         0.30850536868752    2.18721746150376    6.52618789793039
H         1.18410338339884    0.70491504957405    6.17090798805058
C        -1.26535054139980    6.70525627990764    5.56993107843454
H        -1.12328472528156    7.03262289247866    6.60448695012704
H        -2.21128507506789    6.15690683314951    5.51030235558576
C        -1.27313288776758    7.89179229946406    4.63921494206913
C        -0.21728537416365    8.79517473808993    4.66695604750703
H         0.59105673768370    8.66429018604950    5.37150052041017
C        -0.20425155022660    9.87212682557234    3.79909782714102
H         0.61752965845740   10.57072443448510    3.83051042010536
C        -1.24276103696701   10.05447578528290    2.90094934359686
H        -1.23315080759466   10.89762048558717    2.22692777794923
C        -2.29621975521659    9.15675585029064    2.87133564140713
H        -3.10942576390570    9.29633547933974    2.17503035986415
C        -2.30998561693415    8.07522714372898    3.73524730161129
H        -3.13442341504414    7.37639614157196    3.71239477554371

