49
CSD_code = IYUWAA | q = 0 | S = 0 | Stoichiometry = C19H19Cl2N5O3Zn | MND = 4
Zn       -0.20189773019007    4.28855884566913    6.70599543524913
Cl        0.85276964442329    5.67690699030301    5.32330290018458
Cl       -0.77024877801173    4.54843602219242    8.78641739653267
O         1.25743245964347    2.65174806200606    6.57727758012589
H         1.17130936080479    2.17064687998754    5.72572527711562
H         2.17945776957022    2.91933031312901    6.63607237803905
O         1.01869527975153    1.45182179970609    4.17415412261054
O         1.44301574068310    0.29322482085338   -2.73561591792751
N        -1.64015891247463    2.94523252647428    5.84342967764266
N        -0.25020474635865    2.50480060691619    2.61694344719619
H        -0.37887794072638    2.60237383815750    1.62036324004112
N         0.89406394137422    1.15695826696835    0.65289176009465
N        -0.13308585821257    1.60266766988904   -1.76699978837772
H        -0.40648831899328    2.03286401206036   -0.89660010134238
N        -1.03526434057030    4.46502428759042   -3.01259669254905
C        -2.30492590337716    2.26210556044684    6.77107531578040
H        -2.20511618800696    2.62900055918217    7.78268129943947
C        -3.06922293824421    1.14904129575151    6.47436708687916
H        -3.58801981921840    0.62400812824595    7.25954064417518
C        -3.13984300329904    0.72680273089272    5.15563001817877
H        -3.71936050494704   -0.14214900502561    4.88215152776988
C        -2.45463101505371    1.44532047917219    4.19298037944652
H        -2.48650050911102    1.15225638946784    3.15486514652484
C        -1.70920725872424    2.55754892056602    4.57233757267105
C        -0.96765949057387    3.36144843929073    3.53640161063753
H        -1.68227955476638    3.95661243656333    2.96390139376199
H        -0.27270269694206    4.04858923511008    4.03480481852671
C         0.70280875802153    1.64965843451712    3.00668501763840
C         1.35438128709631    0.91825399404281    1.87795937349982
C         2.39936752659720    0.03663597013479    2.13808406469478
H         2.71867117375094   -0.11035329194932    3.15747926423676
C         2.99309696360909   -0.61989622855425    1.07216323539579
H         3.80887308884546   -1.30808528403419    1.23497533156894
C         2.51826049811091   -0.37342194178421   -0.20406556507524
H         2.93195076441241   -0.84785177650239   -1.07977359916503
C         1.46273615415983    0.52218458747815   -0.36538433029017
C         0.94128652341128    0.79307036879148   -1.74715176581682
C        -0.74225109710702    2.07088695571048   -2.99265728510951
H        -1.82665638406945    2.09722030622860   -2.86740379536318
H        -0.46599620899595    1.36040261443271   -3.77552436154615
C        -0.24385399558363    3.45294569209927   -3.33991168010473
C         1.00255909736101    3.63201523950072   -3.93077446279673
H         1.61568607452408    2.77635568607462   -4.16772053059133
C         1.42366521302798    4.92310234444360   -4.20156340033027
H         2.38372644823980    5.10146086591432   -4.66379855149130
C         0.59000005999517    5.98124817818479   -3.87298779016384
H         0.87887944305673    7.00150898978188   -4.07075438873229
C        -0.62825871025067    5.69453429390766   -3.27684836399021
H        -1.31488136660547    6.48174388974912   -2.99412394481935

