43
CSD_code = IZICUQ | q = 0 | S = 0 | Stoichiometry = C10H24Cl2N4S2Zn | MND = 4
Zn        2.33268735443652    2.62789930641855   12.88822932004943
S         3.79226069024413    4.36050816777702   14.13570284224676
Cl        0.45095937133746    2.49938024829082   14.19034372655559
N         1.73835834237635    5.98296188504164   13.78865198136246
C         2.90566235344424    5.55173910881495   13.27965153795127
Cl        1.83162899275155    3.63277364040878   10.94314352113873
S         3.36702197387922    0.33467957746644   13.12066581627350
N         3.43837939806836    6.10836302214357   12.19451695848699
C         1.42997159487607    5.73125445827122   15.18235746579926
H         2.34030438591589    5.78448767031264   15.77545502322969
H         0.96884842075681    4.74929200751929   15.32141816845752
H         0.73524812729597    6.50205700358646   15.51467383063162
N         3.34156320623305    0.86380446033741   15.71862908564434
C         0.55346495309764    6.17346038497201   12.96987800563926
H         0.75396302928075    5.91617023658063   11.93427473426759
H         0.18167976876917    7.19754475913953   13.04715866138524
H        -0.22089451362083    5.49231198934249   13.32986130743103
N         1.58425446283636   -0.43164764474939   14.91254661183389
C         4.55041083138973    5.52179213243698   11.48488733985824
H         4.92959640258929    4.65805705539015   12.02427881147166
H         5.35070186111778    6.25664367955901   11.38548502162625
H         4.21746847493580    5.20420719675799   10.49493677295791
C         2.89890295848367    7.28020326741346   11.54573081970674
H         2.30161125444437    7.86153636957893   12.24206603918443
H         2.29962840857708    7.01014391614565   10.67337248843861
H         3.73685791164904    7.89306740174952   11.20897779212131
C         2.68899798652288    0.27823476478188   14.69915105098302
C         2.65778488568633    1.66627500527275   16.71696733163635
H         1.59854255455147    1.73894908784871   16.48824686192114
H         3.07114688623296    2.67657402444534   16.67856344388123
H         2.80826636219552    1.26448691237394   17.72109743403756
C         4.74530780109415    1.18819348741474   15.58419345932185
H         5.23036408937793    0.46467095191171   14.93333210801256
H         5.19572780283398    1.14493174592064   16.57582057274598
H         4.89454548697775    2.19078278752145   15.17352409263958
C         0.71989792955911   -0.87057838835521   13.84390787936087
H         1.05451312375190   -0.46181352087696   12.89384273140233
H        -0.29512469440660   -0.52225647955050   14.04191319157215
H         0.72651206290420   -1.96034300926266   13.77815955802152
C         1.11535093281093   -0.80895168985140   16.22566726128385
H         1.93051917631234   -0.77969019283272   16.94287548507673
H         0.73812981445617   -1.83134115469504   16.16722211568735
H         0.30207778401392   -0.16131563304416   16.56012173873522

