49
CSD_code = IZICOJ | q = 0 | S = 0 | Stoichiometry = C28H18Cl2Zr | MND = 12
Zr        3.68060691505460    2.91582703315145    7.90509984858096
Cl        4.76065166261888    4.67722780728725    6.83788768230092
Cl        4.24629263041205    1.39175744623165    6.24006103945413
C         1.55407169389880    3.15438571857677    8.95395912633898
C         1.72139432496434    4.38097412541465    8.23114350504888
C         1.94780737272861    5.70210216664031    8.67124595355765
H         1.98835919591541    5.91980682406410    9.73215202555364
C         2.07413845938695    6.69724933782644    7.73203167531595
H         2.24456375678514    7.71430080897306    8.05224494267685
C         1.98265350143738    6.42835536592621    6.35749631974427
H         2.08445733648457    7.24384820520090    5.65845589405087
C         1.77340946249694    5.15044531318814    5.89027970725259
H         1.70574986045127    4.95251585369783    4.82904214029790
C         1.65095078482498    4.10330170280893    6.81210874311479
C         1.42518420245170    2.68818449479503    6.65904536988751
C         1.24256575407551    1.87191085866582    5.53585525623006
H         1.26064194897609    2.30001424917310    4.54289092748755
C         1.04729866182769    0.52148510554838    5.71742152235356
H         0.91289283909628   -0.12010623888058    4.86057122812933
C         1.02378029827787   -0.04565647837358    7.00088094834685
H         0.87228946810927   -1.11066801969468    7.09572805076421
C         1.17674983035343    0.72121368159121    8.13121626650682
H         1.11336169385865    0.28359869626241    9.12078776690872
C         1.36959368471987    2.11175182521309    7.98606474266429
C         1.46347218929574    3.00277885791487   10.42683268708202
C         0.24337004623661    3.18965503118028   11.12294615560322
C        -0.95073225457321    3.54470506599891   10.46080389562176
H        -0.93000655020229    3.67595608374398    9.38868044772576
C        -2.10863319478702    3.71986586034195   11.16476125203924
H        -3.01958919095419    3.99310370524980   10.65327329480280
C        -2.12721569029290    3.54670006968644   12.55790729632138
H        -3.05216702311833    3.68902115218204   13.09708866868003
C        -0.98630335749655    3.20151299394146   13.22602302782432
H        -0.99544681673601    3.06679995631311   14.29819517346290
C         0.22790373989733    3.01444891395523   12.53242620567179
C         1.42072667753277    2.66034896983449   13.19776825040211
H         1.39525855631644    2.52731303118364   14.26959843138512
C         2.58820626788563    2.49099392045273   12.50765551618307
H         3.50242783226656    2.22533205451439   13.01721431800729
C         2.61411746795050    2.66440351846764   11.11178356175427
C         3.85784142889927    2.51675642420957   10.31930469055280
C         4.76375284506977    3.56312738047163   10.00334680149911
H         4.73413151067183    4.57033313859500   10.40625907281613
C         5.81424289886542    3.00666767973534    9.22981031450190
H         6.71122335748722    3.52738424468000    8.91673295105338
C         5.54114615371417    1.63948965557262    9.03553259445966
H         6.19182821943402    0.92407045572366    8.54766318448391
C         4.31887306207545    1.33400540190498    9.68445779641411
H         3.89590648535463    0.34280055085667    9.80656372908163

