50
CSD_code = IZIYEW | q = 0 | S = 0 | Stoichiometry = C21H24ClN3Ni | MND = 4
Ni        4.01711447169410    4.39978597754830    3.31392805546877
Cl        5.54670347593136    3.93845086805307    4.68137529513662
N         4.48516674663270    6.32785615101519    3.24783887294034
N         2.58705490444412    4.83052393779941    2.12481810616578
N         3.54294142306544    2.56992175953170    3.34831716736005
C         3.58423525681611    6.96942560193204    2.29036629907616
C         3.63920358423993    8.31458962714850    1.98567232350320
H         4.37471660014685    8.95790790250899    2.44752424962514
C         2.74874945448639    8.85382862270601    1.07132782796439
H         2.79674940816216    9.90343785846316    0.82589875938837
C         1.79462140774414    8.03601753701985    0.48349714756178
H         1.09069325169818    8.45699391378951   -0.22025358259713
C         1.72307917118289    6.69508595896614    0.78678577602810
H         0.96006626056761    6.07515338527660    0.34027044559960
C         2.62901663399610    6.12424334875694    1.69949079903752
C         1.85026120644550    3.89605969341417    1.40252384082694
C         2.06412120465649    3.69751397476504    0.03208101637191
H         2.78410609206297    4.32094707722702   -0.48053620571751
C         1.37919729533010    2.71484964582106   -0.65202995102927
H         1.56158060241400    2.57156629097023   -1.70812333329688
C         0.46830109212864    1.90376908174772    0.00746695256714
H        -0.05754000627624    1.12840135302810   -0.52985353626092
C         0.22949306320620    2.10434748664116    1.35703581983290
H        -0.49436018617217    1.49016304471438    1.87451138626158
C         0.90120517960999    3.09416238627682    2.04558241295298
H         0.69921155209647    3.26489355973755    3.09342636644294
C         4.27867183006372    6.92206657456406    4.57905000448082
H         4.50143621017976    7.99377595605011    4.56523486071347
H         4.92958742607144    6.43413271050652    5.30469017441393
H         3.23743678903973    6.78418728394245    4.87620121777570
C         5.87976300021224    6.53496513883483    2.82734784113464
H         6.01207792702682    6.15678489753033    1.81245120433971
H         6.55086793445713    6.00209936715600    3.50071988485044
H         6.13700284729807    7.59848039530053    2.84029133719124
C         3.95487116432781    1.73402144497145    2.39131830758560
C         3.54238678108164    0.41027403428892    2.37276284511867
H         3.88230902483101   -0.23543512688305    1.57731605361366
C         2.70167397273360   -0.08137380917921    3.36235648974489
C         2.32344201182331    0.80107840281530    4.36914050356688
H         1.69020446571884    0.47540033654432    5.17930523212346
C         2.76178031732264    2.10823420846554    4.32288158939547
H         2.48599633625988    2.81373966425996    5.09816768214937
C         4.88345124350883    2.27326710776767    1.35153888420687
H         4.42769685925837    2.21075525171124    0.36500373941507
H         5.81310526102223    1.70682459576865    1.34480899736384
H         5.11131586151303    3.32612306210448    1.57855649323246
C         2.23331471767042   -1.49842240459701    3.33663401038888
H         1.62349610536635   -1.66943985274418    2.45038697459475
H         1.64276814830085   -1.73214243196610    4.21812036944948
H         3.08275461859510   -2.17769285208008    3.28987299193077

