33
CSD_code = IZUQUR | q = 0 | S = 0 | Stoichiometry = C13H12Br2HgN4O | MND = 5
Hg        2.33934913394979    2.55356820312570    3.24849607708055
Br        3.39074277961028    4.72526892439471    3.44115065051061
Br        0.66292390163225    0.84649754360060    2.69607142491600
C         4.46379622482854    2.54773984108407    0.49398236844371
H         3.88506745380145    3.45628408175327    0.38949549207821
C         5.47785353989692    2.24728120617759   -0.40403520186775
H         5.69523496556417    2.91460449962362   -1.22198683376421
C         6.19804362486150    1.08079187374285   -0.21228373424180
H         7.00446794592662    0.81245530808548   -0.87847840746895
C         5.87169018836372    0.26113198611276    0.85474585063381
H         6.43551581359506   -0.63916727216602    1.03930526521059
C         4.83032328391928    0.63426304364217    1.70335823235988
C         4.45062915264339   -0.18186105542705    2.86588233073689
C         2.70319081153923    0.54236699299520    5.83837460836671
C         2.31411580822891   -0.28259384204337    7.01078041269121
C         1.50680456852302    0.25260623421427    8.00825701914074
H         1.17451222942026    1.27512238945016    7.92800155109239
C         1.15568936694033   -0.56182541195514    9.07329012311694
H         0.52800950898297   -0.18612253683813    9.86733581444693
C         1.62322810557150   -1.86601040445132    9.09705088214261
H         1.37216755596854   -2.53401914557073    9.90565602946610
C         2.42591283353061   -2.30248577696280    8.04974927889732
H         2.81373075059341   -3.31217369194715    8.02320033047799
C         4.75743240727705   -1.64931376717749    2.89568050835080
H         5.63743057883607   -1.84514842334144    3.50976460944827
H         4.93452598468877   -2.02785898377023    1.89431789463026
H         3.91443583604169   -2.19641804774600    3.31731691561979
N         4.14652778404776    1.76949917838404    1.51411570775143
N         3.86008065621527    0.44973534216154    3.80871610254938
N         3.46573017819473   -0.14147860322165    4.94316828455481
H         3.62910747606228   -1.12819064290526    5.15121213585295
N         2.76531349778538   -1.53714888459384    7.03126052806958
O         2.36841605295278    1.70579984156858    5.69364774870379

