25
CSD_code = JABDEW | q = 0 | S = 0 | Stoichiometry = C4H12Cl2MoO4S2 | MND = 6
Mo        9.20940266529661    5.49640630275271    1.90942422856204
Cl        7.78878352166414    7.06233668611713    2.82951712609450
Cl       11.34472258121116    4.53508730272781    1.59828807418518
O         8.58726110770512    4.15100814391811    2.65962270018395
O         8.68980323737497    5.60105685970350    0.36598321289989
O        10.40600633114405    7.18058320660470    1.74216185360867
S        11.63960556913312    7.40495193523935    2.57632007632039
C        11.08645892661816    8.74355695170206    3.68942669888497
C        12.63216036066864    8.45053076464099    1.45436603039060
O        10.09252884929091    5.71239878373186    3.89827372393298
S         9.71270524916464    4.41862085731723    4.60245218710875
C         8.08349379509950    4.77649420541836    5.32513206605913
C        10.63191316416891    4.70589189111537    6.18058594574113
H        11.91594528156891    9.07147762445213    4.30521755190804
H        10.68213655022556    9.56142850541631    3.10326917796399
H        10.30016823504829    8.31642010091448    4.30685871409939
H        13.44334103977719    8.91352072745049    2.00371293367984
H        13.03172355977472    7.79587165249617    0.68618287559203
H        11.98775266550020    9.19600774990819    1.00198041149831
H         7.93688985469316    4.13793087632169    6.18857342235245
H         8.05331793588888    5.82712852097821    5.59480928685294
H         7.33645653067615    4.56533013150302    4.56499649841736
H        10.40663132772529    3.90309204006487    6.87191604460069
H        11.68862899534801    4.69136024096704    5.93845653898548
H        10.36466266523444    5.66480793853997    6.60647262007697

