60
CSD_code = JADHOO | q = 0 | S = 0 | Stoichiometry = C28H25ClN4OPd | MND = 4
Pd        7.75471593414940   10.97990740539429    7.65971012207686
Cl        6.70301936471480   10.96441450246730    5.53006478697182
O        10.85931850731831   12.48006122604639   11.83151915086860
N         9.75942036052937   12.76352792774516    6.41663893107653
N         8.09859408209030   13.88293338086689    7.22598065933770
N         6.89649021916390    9.27374688677745    8.28622209410493
N         5.85068881643388    6.96161196440047    9.38741988869242
C         8.61327817186377   12.64039214184752    7.11768900103507
C         9.95044181738076   14.08082990911046    6.06656459127855
H        10.77716777446222   14.40568739050769    5.46943791852676
C         8.91183924908855   14.78076979551519    6.57256471152679
H         8.67621355052841   15.82182526224483    6.49352574031900
C        10.27145936430448   10.40657456365970    6.04024128558003
H         9.21254693041508   10.17097963351564    5.90187118576264
C        11.21303320898914    9.39761904425733    5.93041416529968
H        10.87956288046344    8.38355260112950    5.76451572246582
C        12.57347427965968    9.66465552967699    6.01467279731467
C        12.97776700685450   10.98059081257397    6.20921877994433
H        14.03138901990383   11.20962726976026    6.27763092941827
C        12.05296068894007   11.99920058904208    6.32777493671514
H        12.38782856304916   13.01038562764379    6.50544828647872
C        10.69270976842254   11.71951796222038    6.24419350377479
C        13.58896361238208    8.56945325688997    5.90740510989011
H        14.38852070484312    8.85234344121545    5.22517314991804
H        13.13303812788268    7.64892888421188    5.55277529071820
H        14.03584558142775    8.37761698403025    6.88295518576242
C         6.99677736522378   14.21226661056300    8.04353353331503
C         7.01925102617251   15.39406710438567    8.77537411458302
H         7.86699531394330   16.05925865714989    8.70431567638926
C         5.96932192013005   15.70886719713284    9.61758499243162
H         6.00180753786808   16.63007904733312   10.18107392063441
C         4.88428597653260   14.85387398695514    9.75804105325634
C         4.87179799281748   13.67503966568380    9.02020633328453
H         4.02866312131082   13.00517306185519    9.10755873106204
C         5.90924874171881   13.34723315643620    8.16634851121389
H         5.83529496877902   12.44589553126329    7.55133250520041
C         3.73809700216381   15.19869747618216   10.65761743006184
H         4.01657545112691   15.97493993915099   11.36581291482320
H         3.40294823671968   14.32164350890538   11.20712501405514
H         2.89778226796299   15.56211301194175   10.06546929793438
C         6.03475967030008    8.52122534981702    7.61126897809402
H         5.76309567902492    8.85466853958267    6.61530834813938
C         5.51382359480152    7.36228201382809    8.16814651743669
H         4.81302769998350    6.73983565159668    7.63139141019763
C         6.70416727359993    7.71080411206060   10.05446218114172
H         6.96053621870142    7.36286301980050   11.04493657255929
C         7.25620297200924    8.88854836376530    9.53118758243024
C         8.19687035061431    9.76690006817476   10.20139481919083
C         8.60277801725376   10.90758449694753    9.46633103874732
C         9.49620135493470   11.77353106593438   10.07192951934312
H         9.84963747757218   12.66562001486088    9.57097101255410
C         9.98879939416024   11.54452334938895   11.36057710036919
C         9.57969534414307   10.41590507465350   12.06625669155543
H         9.94552248874190   10.21396003040297   13.06079933240821
C         8.68909664051499    9.53719903939297   11.48411624833968
H         8.38003293152293    8.66520816014514   12.04214993753610
C        11.39309669820722   12.31735521112523   13.12295767511129
H        11.97690186609504   11.39460199534810   13.20381576803839
H        10.60782353889088   12.31863684634938   13.88596806631043
H        12.04909628118759   13.17204564904228   13.28170924741922

