20
CSD_code = JAJXAT | q = 0 | S = 0 | Stoichiometry = C5H9Cl2NO2Pd | MND = 5
Pd       -0.71335952859055    5.55937337205766   10.79984744564140
Cl       -2.59389871956402    6.59319198523261   11.31669485642167
Cl        0.31199869674340    7.51896019640619   10.62285941392985
N        -1.74345489998139    3.64978520062677   11.11464102732905
C        -1.27903335140951    1.41135175028960   12.01489287388333
O        -2.21232223298926    1.51425365363559   12.76180204726039
O        -0.54900515614827    0.30930720454073   11.87302288526499
C        -0.77739988225568    2.55340701218294   11.13367868566686
C         0.55727434647132    3.07101966049607   11.71111176788263
C         1.03373142157872    4.33123857954518   11.01795362245409
C         0.86119841485857    4.59394074004345    9.67993190832415
H        -2.50834276656926    3.48636534757165   10.45985920506342
H        -2.17372898182926    3.74554298491343   12.04259643011622
H        -0.86299547692167   -0.39851395526605   12.45946232315836
H        -0.61698239700532    2.16756686480492   10.12188616582585
H         0.41696564806366    3.28665309139110   12.77681120956240
H         1.31829754186678    2.28988198452966   11.62527185231549
H         1.78955699747301    4.89054103854445   11.56956312583548
H         1.47593714124716    5.35190208886683    9.20651736143645
H         0.40066318495868    3.87203119958557    9.01029579262814

