22
CSD_code = JALRAP | q = 0 | S = 0 | Stoichiometry = C6H12Br2PtS | MND = 5
Pt        1.08925236476359    1.25444916220527    1.51804744159555
Br        1.79795645722037   -0.45032212713530    3.07149888631655
Br       -1.15212520026885    0.75556994317020    2.08579685943505
S         0.36368541137184    2.81302072890028   -0.23335436131473
C        -1.42208524271666    3.09813094601947   -0.23771199173887
C         0.89743539495553    4.40628840324720    0.49615536744156
C         2.41185940705059    4.49540053559736    0.62351986141591
C         2.97786303522121    3.72268333280921    1.81526814608357
C         3.03906197407074    2.21899323672699    1.72891801637778
C         3.03134332517776    1.44393343807077    0.58434411795841
H        -1.89512104539469    2.19016732024661   -0.59897896119120
H        -1.62350646262909    3.92345016883409   -0.91570482464914
H        -1.77864294079154    3.31461180611267    0.76483471260550
H         0.41074034039880    4.51981453978271    1.46628418525752
H         0.52792592209406    5.17614680323294   -0.18325849916439
H         2.87997360546710    4.16375623529494   -0.30536322003166
H         2.66787832611971    5.54926493762878    0.75865975238551
H         2.42274094513537    4.00103853024994    2.71849389385543
H         4.00959550942677    4.05366680120318    1.97882721735377
H         3.48795534319205    1.78685367289497    2.62283200433323
H         2.94784034609525    1.89362940281181   -0.39835916712238
H         3.49707318404023    0.46525218209615    0.60495056279722

