60
CSD_code = JAMFUB | q = 0 | S = 0 | Stoichiometry = C22H32CuIN4 | MND = 4
Cu       12.12132442033824    6.23809151821986    8.83898095741845
I        14.40107088904426    5.26917919206676    8.90493561822164
N        11.13989402565945    7.60858709709467   10.00543358032564
N        11.05277609890125    7.24054464020428    7.40365806282172
N        10.13575309863566    5.15342278538813    9.05812586955006
N        13.05779286038166    9.82867580645586    8.29871980142504
C         9.51311377320961    5.84031270147915   10.18863290889307
H         9.89617335295362    5.41150977590743   11.11568405258504
H         8.41709479333375    5.72919078055616   10.18097543318400
C         9.85634809875391    7.30669725201645   10.20491367532065
C         8.89810465668291    8.28495208300973   10.40970747508135
H         7.86855786661337    8.01072137461350   10.58278485804369
C         9.28463606981326    9.61734874410872   10.37257397567660
H         8.55898144294912   10.40175617979053   10.52762455193660
C        10.60915882059994    9.91928157063404   10.11355567142653
H        10.94863995852113   10.93976474167855   10.04206831307871
C        11.51599233419612    8.88285341846131    9.92679840453925
C        12.95488789491790    9.17561728084988    9.60164895794653
H        13.34062979780045    9.83822936691576   10.37363771757089
H        13.51963539897392    8.23283863620093    9.63832073752697
C         9.43492714858351    5.50340198260635    7.82373962495773
H         8.34269742723123    5.41073701960617    7.93399293915472
H         9.75904451044590    4.82744409089276    7.03110928282866
C         9.76342299422189    6.90252930518525    7.37271032280266
C         8.78565571878955    7.78801436577234    6.95129759148861
H         7.75071235052827    7.48273587616221    6.92270554333189
C         9.16088070960677    9.07210419967021    6.58233444070937
H         8.42007318444194    9.78370142248669    6.24953957910249
C        10.49497450427157    9.42682953864256    6.66785845046620
H        10.82859123554120   10.42179641689191    6.42215377106795
C        11.42056403158813    8.48150307892784    7.09300526742111
C        12.87335568846624    8.84164335953748    7.23656792914500
H        13.44211665542825    7.92029984266657    7.42799155654604
H        13.20732127313855    9.26117097623669    6.28924515142277
C        10.32020928556642    3.69254109344056    9.25933802586896
C         8.98325817206773    2.95194814981651    9.40497068904312
H         8.42140249542132    3.31328723542488   10.26389754903746
H         9.17566047979801    1.89222723945086    9.55065345056194
H         8.36908949879127    3.06308455222027    8.51366378097502
C        11.16503818866092    3.45970460320773   10.51920791586669
H        11.99340200368870    4.16219893736449   10.55202560064859
H        11.57786526734773    2.45517096191168   10.50369612314597
H        10.58213413173336    3.55268351240688   11.43316878265461
C        11.09026401950018    3.11340344151827    8.06470776553259
H        10.45151894148568    2.94821054702151    7.19954988288609
H        11.51876258177574    2.15257739979089    8.33473028055734
H        11.90432310747249    3.77653823599788    7.78474898378244
C        14.22652818822977   10.71160771959157    8.12076622728018
C        14.27149392202897   11.73665127046115    9.26516570156382
H        13.27706168396492   12.13290252538826    9.45583872740531
H        14.92094995265688   12.56252127636429    8.98720983925981
H        14.67155178631350   11.31142964299044   10.18178327456612
C        14.04088868133094   11.51230249005457    6.82125913380331
H        14.21184463017841   10.91041930474034    5.93313468407535
H        14.75291440128131   12.33266721515671    6.79219657948244
H        13.03582120205719   11.92508971437499    6.78137961322799
C        15.55264501273794    9.94111491208442    8.07577722947770
H        15.68984093420480    9.35701280931635    8.98247956928288
H        16.38322047749063   10.63657712124329    7.98667369795468
H        15.58260786964830    9.26224166772447    7.22744481904160

