31
CSD_code = JAMHUB | q = 0 | S = 0 | Stoichiometry = C9H13CdI2N5S | MND = 5
Cd        2.93182275215768    2.76651164998575    0.15180073457128
I         1.44334538859203    4.78941099198554    1.08824237481559
I         5.58136217854179    2.33178051398295   -0.26155018056117
S         1.49078118187991    1.68967840995475   -2.06065408326327
N         3.18007104114088    1.65223825662963    2.49499729413431
N         2.55147542108423    0.22474792833463    0.34601815471096
N         1.98730713031319   -0.50872530682453   -0.65142276083830
H         1.83604583419479   -1.50276366403052   -0.48744647136302
N         0.69476751012735   -0.77171301847411   -2.52349123171361
H         0.50352756630998   -1.70654422146071   -2.19196357141078
N         3.58184884816219   -1.69816178671011    1.20482035216760
H         3.72125101926110   -2.12700015979304    0.30181878380966
H         4.22342837465087   -2.02906165891116    1.90615195769574
C         3.57990289531134    2.45532998475381    3.46568603389167
H         3.02764067410897    3.38183479707168    3.56996023005518
C         4.63598736470808    2.15150603549218    4.31516862119743
H         4.92963486725479    2.84091045686902    5.08988782148381
C         5.30977999828632    0.95822762171643    4.12053802280280
H         6.15815971243634    0.69500623560725    4.73389512060734
C         4.88823151151198    0.10489108273995    3.11400579209643
H         5.43113682784908   -0.81044025739891    2.93400369485755
C         3.80665497642381    0.48409315018239    2.32071438508835
C         3.30380088111472   -0.35227623879915    1.21610612028215
C         1.36418980840388    0.07367740232987   -1.71395458926174
C        -0.07396941299698   -0.32977718069377   -3.66831829938002
H        -0.09000228018779   -1.14840340048542   -4.39115047513633
H         0.45021975031088    0.52207372533590   -4.10535660463579
C        -1.49285330163345    0.07764457016186   -3.28519419282993
H        -2.02999261376976   -0.75701255933076   -2.83926575154602
H        -2.03092676730295    0.40555102024785   -4.16917618210069
H        -1.46392913824221    0.89896561951439   -2.57407110024543

