63
CSD_code = JARWEF | q = 0 | S = 0 | Stoichiometry = C32H27ClP2Pd | MND = 4
Pd        5.50004398860306    5.50004197376850    0.00005717675001
P         4.46477271716998    6.96811967197427    1.30602959498427
Cl        3.87480121203394    3.87472085045792    0.00035928370237
C         6.92678879282152    6.92679189818083   -0.00003562356807
C         6.92980029416880    7.93762280652088    0.96802084192096
C         7.91010991752447    8.92070623527743    0.95953537867146
H         7.89646010983258    9.69805688056447    1.71147080146114
C         8.90586717733908    8.90599639484839   -0.00020987774772
H         9.66955141711817    9.66974492258423   -0.00028388051366
C         5.85645904718859    7.93757448852495    2.02835270074267
H         5.55245454723767    8.94868909842497    2.31572012739667
H         6.20617965935964    7.41602319181884    2.92846618525179
C         3.65702120576236    8.15662089678144    0.19765801273727
C         3.53246519950757    7.76753683969309   -1.13544349106322
H         3.87966832770581    6.76823632656978   -1.43752885402873
C         2.96495776467306    8.62809203441558   -2.05772562769529
H         2.86531648287413    8.32840077620697   -3.09071504461016
C         2.52223533276003    9.87792368391896   -1.65434730916661
H         2.07828298907546   10.55067426215722   -2.37332789234237
C         2.64846073817041   10.26974867240995   -0.33099050627011
H         2.30431156858581   11.24635341815175   -0.02225832419422
C         3.21609934263194    9.41431048411226    0.59610484643418
H         3.31903073932730    9.72271455292613    1.62800723045650
C         3.34311745845329    6.63822289757719    2.68892489076071
C         2.06844745616377    7.17183622378900    2.82698967138115
H         1.68710073082431    7.86583981203665    2.09129197738770
C         1.28471721311016    6.79620977360123    3.90458955913163
H         0.29284465696655    7.21046569854467    4.01503452040874
C         1.76080683588903    5.88483624869109    4.83260465285376
H         1.14091241727300    5.59315736699096    5.66756712135133
C         3.02259485536813    5.32912518195110    4.68109603769866
H         3.38258767434181    4.60037996003713    5.39282838584884
C         3.80808550919390    5.69916254957076    3.60803892850143
H         4.78445270712251    5.24938371891948    3.45058469565226
P         6.96801076672531    4.46469334779178   -1.30590528479387
C         7.93755871399827    6.92975364362567   -0.96814887946888
C         8.92057569937872    7.91013709746729   -0.95984280777360
H         9.69788488686050    7.89644013184637   -1.71182204882719
C         7.93763669963090    5.85622645050940   -2.02829387587225
H         8.94881119652112    5.55206442662520   -2.31528336156137
H         7.41640979343715    6.20580044682571   -2.92863869805832
C         8.15649278030586    3.65697140188992   -0.19752305271014
C         7.76751837138680    3.53254050358665    1.13561916399926
H         6.76826091410426    3.87982096974891    1.43776291561560
C         8.62814786919797    2.96507360092381    2.05785664396648
H         8.32856151257488    2.86551605385706    3.09088480380049
C         9.87791923449867    2.52226784243179    1.65438438041107
H        10.55070744560847    2.07831638489875    2.37332957761638
C        10.26962934741573    2.64837195441449    0.33098149969414
H        11.24618922446627    2.30416738711059    0.02217607895933
C         9.41412631440156    3.21598308396772   -0.59606454136919
H         9.72242549114820    3.31886064345345   -1.62800363880689
C         6.63810491957829    3.34302744225003   -2.68878293231552
C         7.17183792610160    2.06843043501576   -2.82700421688244
H         7.86580683169260    1.68701871548151   -2.09131193808810
C         6.79637286469587    1.28485728292691   -3.90477538317429
H         7.21073535298817    0.29304453586070   -4.01536887348196
C         5.88504529950992    1.76103154269535   -4.83279052875335
H         5.59353324500608    1.14127017465717   -5.66790797226958
C         5.32916078702056    3.02272325198921   -4.68108776632393
H         4.60041582021658    3.38275514396883   -5.39279669631253
C         5.69903976899255    3.80805552948457   -3.60786363301039
H         5.24917483635020    4.78436078266624   -3.45024512448760

