64
CSD_code = JASZUZ | q = 0 | S = 0 | Stoichiometry = C28H32BClOTi | MND = 12
Ti        3.13788674954357    5.65845543075431    3.03996624330472
B         2.25574494075380    2.88878784170250    2.17276175487804
Cl        4.67032715757352    6.00243425594143    1.42815063282835
O         2.65745674264167    4.09827052187077    2.50530975559248
C         2.18009863650298    1.73386339571057    3.28576101534963
C         1.39065391245777    1.85619637686373    4.43432560892820
C         1.35367344251904    0.83750942230373    5.38009394397986
H         0.72800127937320    0.95818867136416    6.25427397222052
C         2.09880619323054   -0.31737925352212    5.22684799266066
C         2.89347607658836   -0.43310598106844    4.09386809495335
H         3.48939599215307   -1.32560069493563    3.96069658854591
C         2.94102715834289    0.56350288672098    3.13326646671962
C         0.53199073949127    3.06609023787163    4.67925106146389
H        -0.51748101325008    2.81780750469009    4.51518664533861
H         0.81117303401265    3.87861327828331    4.01094388315279
H         0.63259736469192    3.39898559926181    5.71221892631806
C         2.06418075851231   -1.41567131514746    6.24577894159570
H         1.73147962547580   -2.34643349921682    5.78789968639194
H         1.38992966306176   -1.16935652689604    7.06222955590562
H         3.05957597493524   -1.58453790079448    6.65513626245010
C         3.83618185829711    0.38455754232335    1.94336881358418
H         4.33339873257539   -0.58203475457867    1.97739659990322
H         4.59472581539341    1.16489250484175    1.92130093953869
H         3.26159741892713    0.45337943597514    1.02221068821904
C         1.82128412083583    2.59168060668467    0.66065381018942
C         0.51385957909066    2.17846781841447    0.36322830432744
C         0.12698529368880    1.97136615778961   -0.95112033693902
H        -0.88691850026796    1.65815252102584   -1.16056211416818
C         1.00928288712802    2.15770062504095   -2.00594602416175
C         2.30051902465683    2.55846552094514   -1.71006878952613
H         3.00994926435541    2.70664435823550   -2.51278233702372
C         2.71226979764153    2.77929622499677   -0.40128425736471
C        -0.49325070473109    1.97146346706733    1.45749876988186
H        -0.13330709023972    1.23067010493772    2.16860915322726
H        -1.44190393819615    1.63228409929565    1.04753112745391
H        -0.66353088639890    2.89982137755632    2.00013505593441
C         0.58454701649829    1.90651120513080   -3.42136258333134
H         0.82083661222398    0.88001910928904   -3.70445694619406
H         1.10644713472027    2.57160594524682   -4.10576492839270
H        -0.48738183127043    2.04952875612296   -3.53692989473140
C         4.14009254831970    3.18053340358243   -0.17724884540917
H         4.81105553275854    2.40214504924430   -0.54229883757357
H         4.34383214227646    3.35626107282342    0.87742089479392
H         4.36395247445237    4.09500714670817   -0.72517520093404
C         0.89493968844035    6.51735265103458    3.49877738814094
H         0.21199809967538    6.21614239510532    4.28203341286005
C         1.80506824239018    7.59653543123842    3.58072514849160
H         1.91731230983837    8.25455215672264    4.43198751220767
C         2.38088285253527    7.77854893319771    2.31445904485079
H         3.05081766774621    8.57857312218152    2.02233722107027
C         1.79980409396195    6.82955190384912    1.43369761866668
H         1.96914317302763    6.76816942460652    0.36603978587265
C         0.86542500930009    6.07435205470121    2.16177669893883
H         0.20783544885010    5.32182483766267    1.74579074456271
C         5.22527056889061    6.04510887815856    4.28910234751945
H         6.11763662129988    6.51957058344127    3.90327304255457
C         4.19664647394802    6.67536912714178    4.99538641882566
H         4.18741355974544    7.71614327779123    5.29168112275132
C         3.27368811972494    5.68179151035726    5.40510910494980
H         2.44430075619852    5.83279162646273    6.08428195439609
C         3.76299751744712    4.42956285877889    4.97528181792212
H         3.35615502768297    3.45940242447919    5.22721901292490
C         4.95122979393759    4.65645163391017    4.25274053074579
H         5.60511624401567    3.89326561871710    3.84747997787452

