47
CSD_code = JAVMAX | q = 1 | S = 0 | Stoichiometry = C21H21ClN2PPd(1+) | MND = 4
Pd        4.00417887754899    7.29487307053853    1.76572677621628
Cl        2.69182488280906    8.91700923682363    2.48968729337851
P         3.00655933691353    6.10905764565830    3.37721551096170
N         4.82357530745192    8.36373190478234    0.16254004710768
N         5.28010784072917    5.91388401200142    1.09890920117149
C         5.73204678865484    7.60731882426163   -0.48877755814460
C         5.95281452365320    6.29022562937278    0.07185818953881
H         6.70449049822224    5.64735595915185   -0.38523234655604
C         3.81545793857109    4.46090116647375    3.58256988301393
H         4.66328309546099    4.53709194905697    4.26682099247284
H         3.08427872115054    3.77694201914951    4.02204028478379
C         2.75648372736271    6.77738388838664    5.03580750855450
C         4.55761795350747    9.58856294957768   -0.26741134134602
H         3.81947087080336   10.14792785335461    0.29761361383843
C         1.10996714505113    5.96150000859599    1.36812317797770
H         1.84963845469459    6.51610646925498    0.77116425974140
C         1.54963139389611    7.38307408693674    5.37706299375883
H         0.74346398625057    7.41977881945888    4.65844480368512
C         3.81667271056396    6.77848352221058    5.94019878072578
H         4.77047110822348    6.35123900276149    5.66032971136279
C         4.27421349680386    3.93803540685612    2.21903188051950
H         4.48980199938872    2.87159701880712    2.30301692265122
H         3.46901406902492    4.05977247632803    1.48488427433370
C         1.38801445857889    5.65246285851686    2.69870706653272
C         0.45165174389244    4.96021213084993    3.46233833339463
H         0.66938614824762    4.72208092741412    4.49455106511115
C         5.54151216120982    4.62809282526876    1.69525398340309
H         6.23404622561233    4.78589288093266    2.53329386278131
H         6.03978951159773    3.97490207962687    0.96702055138625
C         6.40516364022981    8.08649850937109   -1.61261249251869
H         7.12696298534362    7.46320892772122   -2.11624367326450
C         1.39607501956121    7.94566236199486    6.63094906183504
H         0.46012067361522    8.41256195374759    6.89642889688989
C         5.19007078486413   10.13111035622624   -1.37878123408689
H         4.95049358130277   11.13221912436894   -1.69781946290362
C        -0.75799509750450    4.59444870631860    2.90024475977689
H        -1.48787339319799    4.06554622143895    3.49352320703682
C         6.12756295132165    9.36744829562159   -2.06058483695364
H         6.63439311321497    9.76371785130128   -2.92652493951458
C        -0.10080410112989    5.58904482340066    0.81178314292064
H        -0.32105922798610    5.83216795754566   -0.21636795869921
C         2.44220934029839    7.92021196614487    7.53968449725549
H         2.31873213407231    8.36269822816253    8.51601576050367
C        -1.03419519247534    4.90877120266529    1.57851801944451
H        -1.98075213678850    4.62549430765104    1.14523911982895
C         3.65318909307017    7.34221961927400    7.19185861385496
H         4.47274085631689    7.33857296464145    7.89419979622992

