56
CSD_code = JEBDEA | q = 0 | S = 0 | Stoichiometry = C17H29Br2NO5PRe | MND = 6
Re        2.35207181355582    8.35264590032166    4.42640633897211
P         3.03649091944503    6.11154394177602    4.67081062312724
Br        3.79683497959022    9.15180828820471    6.36183666134120
Br        0.91507231725006    7.52279651281780    2.50637313775744
O         1.04133889128824    8.38441726692272    5.42731242396545
O         3.77082784062219    8.36247302027499    3.34454865002194
O         4.20264833664352    5.73269091614293    3.66507840577494
O         2.05435670060619    4.90827786942708    4.35602414300606
O         3.45077608798215    5.64908067543350    6.14867350085747
N         1.94273461781553   10.50318464430931    3.88917362724510
C         4.79687761646480    7.85283038095766    2.58001355187611
C         5.32910101271755    6.55344671017278    3.29712754272149
C         5.90201173947769    8.91636441235971    2.45471638580274
H         5.54120713588023    9.72824452607006    1.82507027388563
H         6.79696281675128    8.49856578443971    2.00465315760532
H         6.14423652914705    9.32675421277131    3.43249660330577
C         4.24649479460710    7.50726204992786    1.18285065707417
H         3.56849559072130    6.65810439413408    1.23859261589973
H         5.05723112774851    7.28952470462287    0.49500519772508
H         3.68324264962415    8.35592010523965    0.79720545674484
C         6.15664761971817    5.66695398891271    2.36714442520288
H         6.59430162332009    4.85949912561991    2.94930497830943
H         6.95644292784781    6.23654927832952    1.90376253466437
H         5.52896039183908    5.22892205997050    1.59740514868331
C         6.13134759633456    6.87150362280261    4.55560958142058
H         5.60444467705122    7.57082067965807    5.20078912984399
H         7.10181176828797    7.28625138501168    4.29842204292433
H         6.28188135468916    5.95018424659870    5.11525706554645
C         1.56466750100148    4.34900568498331    5.58931443012201
C         2.80984579834727    4.41581066592495    6.52481591724632
C         0.41657104213352    5.22491768012845    6.08203807998130
H         0.77330177362269    6.22688590138244    6.32634921891396
H        -0.06737305656613    4.78613675664243    6.94953877771308
H        -0.31211699555677    5.32226840328584    5.27951461927533
C         1.06625503346677    2.94203728026650    5.29179760654072
H         0.81838174873576    2.43324259011645    6.21915716379926
H         1.81308214914871    2.37069369913802    4.75047793754445
H         0.17532278772688    3.00667629585583    4.67326062212036
C         2.47690223487730    4.49269174222833    8.00762852882132
H         1.86154263906941    3.64531972531880    8.29712968733864
H         1.95628705201304    5.41725870605903    8.23447490699790
H         3.39859724297572    4.47633524645884    8.58300580377892
C         3.79925551358575    3.28710434159157    6.24764932362881
H         3.99732378587517    3.21975960670356    5.17991813333420
H         3.41702173553742    2.33881125813964    6.61390597387311
H         4.73340863007164    3.51122758186074    6.75778877201237
C         1.47075070700306   11.33814485393957    4.80915833363973
H         1.32517963679947   10.93034552302356    5.80088884904506
C         1.17802738692343   12.65927721602464    4.52172692210547
H         0.79591928270250   13.30278698054660    5.29747749439975
C         1.38502641811656   13.12717356430476    3.23351915714736
H         1.16609783032794   14.15241306191962    2.97634158668686
C         1.87522132525715   12.24878461018283    2.27994055475466
H         2.04667207574704   12.56228994421324    1.26258471037701
C         2.13764349817705   10.94316034341710    2.65260816169704
H         2.50473374584738   10.22382003312152    1.93202486581668

