63
CSD_code = JEFJIO | q = 0 | S = 0 | Stoichiometry = C22H36IN2PPd | MND = 4
P        -3.27980995183789    6.56932469202557    6.14889466156919
I        -0.00819349891717    3.52566298093147    4.46038893445916
Pd       -1.54838805231344    5.15910981274815    5.69524703299080
N        -3.52203533414456    4.01778067493800    6.18301545748044
N        -5.53431577422785    4.67294337348146    6.76577659226705
C        -4.29619037433814    5.07647174275735    6.38597080702334
C        -5.50454626385763    3.30439791904837    6.80717294910548
H        -6.37210351685203    2.74383755255501    7.08857671556902
C        -4.24652593810999    2.90381621028722    6.44525540616563
C        -3.62749137589966    1.54121528189014    6.34530495801472
C        -3.32424282714158    1.26441434143239    4.86843702428458
H        -2.68295633780251    2.04356783527872    4.46392269084276
H        -4.24518895126855    1.23507168337622    4.28783317963254
H        -2.81239394444792    0.31217104180188    4.75979990132526
C        -4.57257829365156    0.47313042205680    6.89552102210612
H        -4.82955303650986    0.67899640364944    7.93310846117132
H        -4.09005101503437   -0.49992601924361    6.84839968413522
H        -5.48930216163328    0.42837586589339    6.31085208213411
C        -2.32453714899342    1.56230827923262    7.15562045390622
H        -2.53916338108037    1.64756199786422    8.22033285298498
H        -1.70618457054277    2.41426373579186    6.85973827334290
H        -1.75533412759634    0.65299262702676    6.98348144408678
C        -6.69090430555715    5.44638337820093    7.12128838187046
H        -6.63608668717317    6.43372758989960    6.66973743391223
H        -6.76928690124671    5.54858477199325    8.20793281047082
H        -7.58799687754170    4.94280010867612    6.75866900497355
C        -3.92038077760030    7.30276955485759    4.53052620379134
C        -5.43239820842278    7.48573592004045    4.43701718845983
H        -5.67922822490947    7.92426429866303    3.47024049682691
H        -5.81157959649356    8.15206893645442    5.20829315068657
H        -5.94373558140606    6.52682295550515    4.50291556770266
C        -3.19289230451000    8.62652757152904    4.29855994227603
H        -3.31016644280442    8.94224221255666    3.26264544546948
H        -2.12739644186311    8.51135471128000    4.50423922266155
H        -3.59088403024483    9.41377319648606    4.93612574574748
C        -3.46958057797487    6.28251119492472    3.47473738299224
H        -3.69971987161602    6.64678330965495    2.47430317399274
H        -3.98022937320125    5.32550468336152    3.61118817768093
H        -2.38096317761424    6.10795461174716    3.53351054182136
C        -3.48753058648821    7.66000231731128    7.67693460561432
C        -4.75708743961505    8.49307600507916    7.80106459390740
H        -4.71225896136887    9.06629836996930    8.72719826261651
H        -5.65127204029966    7.87802474056805    7.83883919032728
H        -4.84575708711114    9.20112961565595    6.98018752098496
C        -3.35986193911518    6.66893774271773    8.83747849153870
H        -3.18395878608493    7.19616377056437    9.77356862686179
H        -2.51231322208808    5.99666950581399    8.66216970493387
H        -4.25926429779300    6.06436881676298    8.94964772537181
C        -2.26797614665166    8.58723338589020    7.68783915598590
H        -2.20107386950504    9.10208113626773    8.64533866416019
H        -2.33124355939975    9.33908245365029    6.90510199850618
H        -1.34901779673836    8.01761446557501    7.54198611020632
C        -0.02771817370290    6.41507717090779    5.82930719290395
C         0.39622968705361    7.29699351962489    4.84987208936164
H        -0.06410100794810    7.29792706751216    3.86582254125141
C         1.44945765375242    8.15960837258069    5.11569214107180
H         1.78218429748264    8.84743990733879    4.35111374869547
C         2.08104006292814    8.13274246416368    6.34680734212437
H         2.90325146939648    8.80405251914383    6.54725101353015
C         1.67428065839674    7.22973080627488    7.31521403874847
H         2.18071556215642    7.19051446893735    8.26944624697223
C         0.62042769380653    6.36816382054070    7.05611173353796
H         0.31536308533654    5.63717009647647    7.81072680486142

