44
CSD_code = JEKYAZ | q = 1 | S = 0 | Stoichiometry = C11H26Cl2CoN4(1+) | MND = 6
Co        2.88845518316487   -0.00489615833215    1.67125455671785
Cl        2.79970700044571    1.38896980002505    3.40682228334358
Cl        2.97612337629748   -1.39610595943301   -0.06888460964129
N         3.12024449242275   -1.56023308868660    2.96537008508344
N         4.81393663053890    0.00622317014380    1.63514399878093
N         3.00148247550773    1.55861353411342    0.55175206156007
N         0.87743007179246    0.17094159065644    1.37728950313876
C         4.57262414044374   -1.77143920760506    3.17784170910540
C         5.33091501513699   -0.47410927978587    2.91370451710221
C         5.29762734130659    1.30024417717790    1.13993576075383
C         4.35445962543368    1.67644088821493   -0.00409503751869
C         1.87420491387655    1.58299577967582   -0.37624941461323
C         0.64649566244096    1.34032162033556    0.49630229133150
C        -0.17195455115944    0.14529583608986    2.42001511456813
C         0.07422251650179   -0.75860345169508    3.62499030488109
C        -0.00567376131033   -2.26519321005404    3.38412415021726
C         1.00015622300317   -2.88104631789383    2.41376973482734
C         2.46323483829285   -2.87841724610764    2.84606936903735
H         2.76568856612031   -1.12420103664092    3.81925506879478
H         5.03645213796234   -0.69681636591826    0.92231137649837
H         2.87636706335452    2.32933229264650    1.21708181283868
H         0.74373201148460   -0.65614741335369    0.79107831524066
H         4.76803695856738   -2.14404837324024    4.18776633227997
H         4.90881232781253   -2.52787219361968    2.46243442959304
H         5.11605793954628    0.27037705731522    3.68341774228564
H         6.41066606196291   -0.65338525542863    2.88000276065767
H         5.22308647311887    2.03319045013249    1.94762079517767
H         6.33827418802752    1.24214554071160    0.80682511306589
H         4.55135738917441    2.68552805261471   -0.37873854302747
H         4.45680991475508    0.96477627319647   -0.82762195798956
H         1.79498973019368    2.54014163326695   -0.90225737656122
H         2.00093497120998    0.78273886532774   -1.10880040003759
H         0.49016157431358    2.21514632997101    1.13455555642243
H        -0.25016502951724    1.19636701800223   -0.11419546716236
H        -1.12614391661743   -0.12570125992853    1.95359337656728
H        -0.26209238817134    1.16251453366246    2.80880211394254
H         1.01353607858588   -0.47350779842973    4.09311580683810
H        -0.71059193635603   -0.51151770329815    4.34403089737198
H         0.09746802959989   -2.76202404739642    4.35122970002398
H        -1.00602241612836   -2.49904622638572    3.01335952478841
H         0.91813042217076   -2.43849338495971    1.42360670970574
H         0.73130040868917   -3.93407580696117    2.30036222178410
H         2.55615487749262   -3.40327514170066    3.80434189117879
H         3.01470736851165   -3.44674851642540    2.09296582104700

