40
CSD_code = JELZEF | q = 0 | S = 0 | Stoichiometry = C20H13Cl2N2O2Tc | MND = 6
Tc       12.68317605204003    2.93772775444053    3.61148943327514
Cl       11.07076826314501    4.59960669986605    3.35953773251081
Cl       14.36235346106687    1.34880201738547    3.18914859740442
O        12.70377009986522    2.79711100134782    5.24442974243012
O        13.96238413289192    4.20966985825536    2.94170298093613
N        11.11128262632882    1.57281240362533    3.57796378875370
N        12.32513259721292    2.63748456173630    1.56440664324386
C        10.58343679836728    0.98844079759004    4.63845401550401
C         9.42160111788796    0.21317700567470    4.57256274558728
C         8.77696326156667    0.04398132095438    3.37487482673029
C         9.31743940799040    0.64715752234028    2.22191160198389
C         8.73487440903095    0.57101844784424    0.94043224000211
C         9.31519317394857    1.21932813543587   -0.11720305376735
C        10.50816032329565    1.93559883124044    0.02888766012331
C        11.13289670827027    2.00675000874949    1.25997463274220
C        10.50817914155734    1.39421188002198    2.37790482589124
C        13.20171424617978    2.86015195090772    0.60472780767270
C        14.41083427809273    3.55392668040431    0.71502274997031
C        15.32424497179201    3.64547551336126   -0.40362941885699
C        15.15719171892134    2.92758118150793   -1.59788900209528
C        16.04631514646555    3.04984328617008   -2.63992839106824
C        17.15112304044610    3.89306770687298   -2.53859427815448
C        17.35684070097630    4.59118217275055   -1.37592956164302
C        16.46505293751223    4.47779263067504   -0.29847670372298
C        16.71263579175271    5.18706931156221    0.91045381162953
C        15.89058488662580    5.07707896601532    1.97787974598963
C        14.72766535451558    4.24824728889781    1.92764891763420
H        11.09222922780348    1.14619014873209    5.57943008227494
H         9.04508508906199   -0.23401006927997    5.47832567958444
H         7.86940234249144   -0.53535719186541    3.29861274896223
H         7.81938998021031    0.01428410555916    0.81551504316532
H         8.85017899832715    1.18368497937827   -1.09071530689756
H        10.91269265113679    2.45147895293425   -0.82813759524454
H        12.95394818733442    2.46068905966059   -0.37372792420986
H        14.33227358663003    2.24298756734252   -1.71528356120868
H        15.88904005562143    2.48143225724118   -3.54445569925153
H        17.84026068290082    3.98387921665666   -3.36423117345161
H        18.21565973533118    5.23802377007034   -1.26998583697922
H        17.59237507480216    5.81261431608597    0.96267591069628
H        16.07894974060326    5.59570795184900    2.90541354185350

