56
CSD_code = JIDYUT | q = 0 | S = 0 | Stoichiometry = C26H22ClFeN3O3 | MND = 6
Fe        7.42634602069801    7.62298444967439    0.41375248340854
Cl        6.14668328466127    9.00185956600874    1.43090733002651
C         9.90794341234324    6.44204890767210   -0.46846087844535
C        11.76183641071888    6.18974352961389    1.06305505682828
H        12.15408747779809    5.77827046227738    1.98086587491973
C        10.45786615087265    5.91327112261244    0.70169538624340
H         9.85116550795699    5.32119528729109    1.36767012011785
C        10.71927638428619    7.24348859723032   -1.26739995503111
H        10.35586134036664    7.68705289004232   -2.17887402143891
C        12.02348467014368    7.52270845802176   -0.89393566070033
H        12.61909372200531    8.16596485427675   -1.52269492523470
C        12.55451893037025    7.00087525442612    0.26964627815831
H        13.56650390720127    7.23168797009226    0.56270727594885
C         5.73876809857428    6.44544552718645   -3.11315745969764
H         6.17185149533926    6.07322013441881   -4.02902305835644
C         4.75803849772885    7.39730003536880   -0.76620633130178
H         4.43050835858535    7.79817983093270    0.18133045623582
C         8.04604546106502    6.57824243301243   -2.07394932781158
H         8.36965429161944    5.85529226373173   -2.83423273220259
H         8.43013032293569    7.57003777530228   -2.32234447309800
C         6.55296021438714    6.72657178062129   -2.03156513687661
C         3.87947303792463    7.15043461884843   -1.80490447847753
H         2.82749465183254    7.34338373277230   -1.67207879274234
C         4.37197256127458    6.66410093998580   -3.00595569265392
H         3.71690782686924    6.46317259397714   -3.83907582431243
C         7.48325234759112    3.82871756826730    1.90285031870816
H         7.86949485287996    2.89438573870202    1.52381792130274
C         7.50255488679342    4.95437024849234    1.09935743550911
C         6.97570179176199    3.91951813721704    3.19185536097140
H         6.95703098185305    3.05566990764878    3.83735486310244
C         6.50450409666609    5.15162438405404    3.61993505893677
H         6.10382892582577    5.27977475383729    4.61224547050986
C         8.03202976870019    4.91142251217852   -0.31074775564033
H         8.81653639184552    4.15020360609180   -0.40256174002785
H         7.20613789320169    4.62238280205937   -0.96849309745560
C         6.55581126917093    6.22937507033234    2.75769649406926
H         6.19245142772635    7.20755225373826    3.03387345288087
N         7.03841742003309    6.14544225937197    1.51459416043089
N         8.52742981543677    6.22662394446040   -0.73854766808717
N         6.07191470132834    7.19378597512039   -0.86845997323626
O         8.18081984437306    9.10039147817484   -0.68428332571924
O         9.84832220324928   10.56931245926896   -0.74642118085237
O         8.85140433575203    8.11676845955208    1.49965685518309
C         9.58857586262133    9.06963296698295    1.15025806265301
C         9.20043969218776    9.69308757005749   -0.19915769084568
C        10.77509586163710    9.40774685131832    1.92004895211294
C        11.01766454697124    8.72642594573770    3.12028410898132
H        10.29726876819379    7.99380597452801    3.45279992621635
C        11.69149225053033   10.36944353864123    1.48524188422066
H        11.49836212643862   10.89382751859796    0.56356925891019
C        12.15019633422195    8.99427772049608    3.85851347026970
H        12.32997300544952    8.46580365186007    4.78387417745623
C        13.05940764855088    9.94418236995754    3.41516970241417
H        13.94790877110849   10.15186169911388    3.99383974206530
C        12.82380406769350   10.62868369943762    2.23276239161627
H        13.53069607268833   11.37116591934480    1.89250184991730

