60
CSD_code = JIZWEV | q = 0 | S = 0 | Stoichiometry = C25H31ClNPPd | MND = 5
Pd        7.19418951392002    7.19475936262420    2.56586463260425
P         5.05433830822405    7.10600380043190    3.32596463917828
Cl        7.60228214972325    9.04395709356505    3.87029154726164
N         7.87269129142337    6.57185305758163    6.57786098778574
C         4.13162176474078    8.33837663163645    2.35065355385103
C         9.18313776704067    6.05285692384289    6.28389118873137
C         5.69102738323574    7.26959872937378    6.01300695571274
C         6.91467815904000    6.54685682352057    5.76484709353334
H         6.92359220658796    6.00827240021711    4.78507245175928
C         2.74294040258806    8.43068182613102    2.36933078383390
H         2.16612112827526    7.75180974740477    2.98196082911233
C         5.33328727324427    7.91716095667877    7.31643927393938
H         6.00388378673560    8.76432719077019    7.47106827041145
H         5.45463932353633    7.23819739720045    8.15921226916944
C         2.10374014340532    9.37603616951777    1.58908269708975
H         1.02592973758827    9.44780209350424    1.60744162350385
C         4.79736840519586    7.56848489576560    5.05179714869389
C         3.70021867742872    8.45413216311082    5.57739475847338
H         2.70792238931325    8.13188625238436    5.25917549922147
H         3.85455463496675    9.47311000900613    5.21204792864785
C         3.59113928580636    5.26347389980952    1.85953767625267
H         3.89372883934884    5.86873520717901    1.01418372667149
C         3.98709733691907    5.63799364299163    3.14089223284480
C         3.61683559502153    4.85707990261284    4.22903306002023
H         3.93680452726361    5.13979386599673    5.22262276368210
C         4.22216823171250   10.12797019010948    0.74451009070296
H         4.79507531598031   10.78668165457194    0.10853755117199
C         4.86737715875093    9.18291957302215    1.52257414440670
H         5.96104369584003    9.10466155729080    1.50406606761767
C         2.43541838569351    3.36811324953229    2.76311932172775
H         1.82763530687570    2.48748867567497    2.61708567073871
C         3.87975827260919    8.36669986536135    7.10277549492262
H         3.19965687737390    7.61444599545982    7.50662595793949
H         3.66458516218395    9.31410285742503    7.59247485535011
C         2.84109778018103   10.22761746815558    0.78117879634125
H         2.33648872608938   10.96529689511138    0.17481519998113
C         2.83983185707864    3.72775416951486    4.03767234827038
H         2.54884417256626    3.12648937211090    4.88670955547041
C         2.81436437889880    4.13683071777783    1.67293758760149
H         2.50364260753971    3.85414720879513    0.67761444373765
C         9.38026493942403    5.53896517271621    4.85182820432618
H         8.77638474631373    4.65054526523761    4.66020115681294
H        10.42572174118750    5.28216754320909    4.70036724632407
H         9.11110847482931    6.33677576711351    4.14044910739159
C         7.09923039405602    5.80477246240522    0.97835256633515
H         6.70284878816260    4.79754608774616    1.05120590872700
H         6.65566027100874    6.40793855272220    0.18245679374043
C        10.12503637606878    7.24209525359459    6.52201564269112
H         9.98833144174991    7.62453850761339    7.52921153440520
H         9.88663560632506    8.03669959862046    5.81830639834173
H        11.16130422669146    6.94150694411621    6.38884524375360
C         9.47045499633169    4.94006195552978    7.29902839413233
H         8.81426674029694    4.08963252908051    7.12419486272471
H         9.29650496535716    5.30929033108279    8.30586067099181
H        10.50309889093413    4.61136240459468    7.21442046173206
C         8.93711790520691    7.33884508558972    1.34559537864692
H         8.58057668391446    8.05629545144857    0.59972678616082
H         9.94625563434527    7.52025205349896    1.70102510790646
C         8.44188184368975    6.02845986772598    1.32954470845643
H         9.01645737431274    5.22568967362302    1.79119314851156

