38
CSD_code = JOCGOX | q = 0 | S = 0 | Stoichiometry = C14H21ClSiTi | MND = 12
Ti        0.74575688827137    1.62181894212012    2.57357778449538
Cl        1.77748844222571   -0.25571228475791    1.92553561024231
Si       -2.79478081927762    1.30678168258224    2.78783281078735
C        -1.09389822854343    0.62157168570106    2.29944793803528
C        -3.32978100865581    0.62654024632617    4.49955792462108
C        -4.11936788551901    0.72981644114780    1.52671678335742
C        -2.93083559664083    3.22401083137418    2.84487535055063
C         2.10151820303197    2.51951296949039    0.78519274142078
C         1.83993587184830    3.58186136981500    1.66450771761728
C         0.44723689645747    3.80385217670952    1.68462382649914
C        -0.15233192437379    2.88168926352949    0.80054568570724
C         0.87485798020040    2.08809450709661    0.24361399912925
C         2.26768343613267    2.18224467544742    4.36076069006772
C         1.14566815687232    3.02904574630221    4.47369251586290
C         0.01701691096355    2.22787944072222    4.72277265655804
C         0.45218250045496    0.88114689166654    4.80835870293820
C         1.84336402151853    0.86396114107248    4.60348773681614
H        -1.11764893654614    0.36266233387667    1.23231642191297
H        -0.96000697613931   -0.33290022616896    2.82643618140051
H        -3.28886990895538   -0.45867286584973    4.51412223990053
H        -4.35186523337006    0.91382595841720    4.72617919491838
H        -2.70372719592823    0.98675140185223    5.30933666970657
H        -3.87280177635490    1.04643768140037    0.51718861951624
H        -5.09747591452569    1.13577792149139    1.76705466394096
H        -4.20884951585137   -0.35160439283806    1.51560446367159
H        -3.75279655905125    3.52305248000535    3.48897691350539
H        -3.13223187719324    3.63721325175191    1.86132715568993
H        -2.02852046142302    3.69722954900242    3.22197230454404
H         3.07897144901052    2.14904997501779    0.50510184705666
H         2.58694113269599    4.19926544604975    2.14598357538703
H        -0.05325121339122    4.63887678903394    2.15732619085510
H        -1.18532030416643    2.88919516462514    0.48322023617368
H         0.75490055603970    1.34028246515289   -0.53073345600022
H         3.29734884045876    2.49940088146332    4.25297792338571
H         1.16695557940523    4.11083622849275    4.48949863936448
H        -0.96306930418259    2.58943007388231    4.99497383803906
H        -0.14924543615403    0.03939297316822    5.12526909489149
H         2.48474921065039   -0.00321881616142    4.68496680742597

