57
CSD_code = JOGDOA | q = 0 | S = 0 | Stoichiometry = C22H30Br2N2Ni | MND = 4
Br       10.92404443971903    3.50514198668318   10.75037150407579
Br        8.88588462871277    4.22911923945755   13.29395878795348
Ni        8.81383362384407    4.05567074560228   11.06402431659905
N         8.35027679873121    5.18909796955805    9.26205661127422
N         7.03561545823297    3.58125238693650   10.91554329251006
C         6.28628712102511    2.83925063526143   11.85280329739814
C         6.66382746620526    1.52804162013855   12.16627057144169
C         5.86475718959767    0.81069001065720   13.04289851711479
H         6.12450442852638   -0.20773770904580   13.28419199781495
C         4.74595707423770    1.38487475102481   13.61605218553944
H         4.13413832057187    0.81032428537498   14.29491625879406
C         4.42587215047698    2.70088242212625   13.34389572936240
H         3.57070779959690    3.15111448151045   13.82297400293102
C         5.19022840586767    3.45452119587031   12.46572789967393
C         4.87262420853473    4.91086965262007   12.21845081018498
H         5.61926937589551    5.32917753929070   11.53429568540739
C         4.96949615936829    5.69362216767683   13.52997869982536
H         4.21810839048934    5.36013980205425   14.24040596271134
H         4.81889148813574    6.75440923904537   13.34225059145285
H         5.95211193123638    5.55411643623988   13.97493669627854
C         3.49446244221767    5.07353024364200   11.57473246786168
H         3.43962027690403    4.52670298376979   10.63433942599572
H         3.29742759395504    6.12430859478122   11.37369090350131
H         2.71421789270623    4.69914758266124   12.23227518032639
C         7.91415724285504    0.91187322267718   11.58106748694247
H         8.50598154666997    1.70180436845803   11.07737435126801
C         8.80931438308949    0.32450130979637   12.67261721722116
H         9.00517802431371    1.07086865696244   13.43912917942748
H         9.75949337013113    0.01720058713529   12.24152250904791
H         8.34796613499985   -0.54186396057638   13.13899949109371
C         7.55709674063629   -0.14119801558724   10.53135877701645
H         6.98897844261390   -0.95052066438112   10.98473538706500
H         8.46263295626712   -0.55676574868251   10.09476498520222
H         6.95578765697201    0.29114393997020    9.73199980130054
C         7.38812990969174    4.41130868086229    8.73003627061162
C         7.06596422487045    4.44072643411126    7.37666306775384
H         6.29194097249817    3.79905299954125    6.98618171733779
C         7.78164474675154    5.29976637008429    6.56186597308796
H         7.59746372491497    5.32727658528385    5.49834696535593
C         8.71226500828226    6.14802234535399    7.13401537653762
H         9.24874540360953    6.84753813700817    6.51553180373624
C         8.95649198000567    6.10041881807883    8.51036179939617
C         6.68225312918139    3.58282995174607    9.68039882870143
H         5.83443325862165    2.99189334345317    9.33553062669062
C         9.87431633443895    7.11326306500956    9.16898034867086
C         9.64330828045589    7.15911811148033   10.68173833263729
H         8.63444932065935    7.50256326019935   10.90629066991693
H        10.35157235470902    7.84016726305813   11.14553568646221
H         9.78937426009796    6.17570463246607   11.14348431803726
C        11.33214557975594    6.74395916004648    8.86470912921189
H        11.99405054381471    7.49959830441912    9.27967729601998
H        11.50197311700347    6.68681740263177    7.79157179015712
H        11.58984156632025    5.78524241018467    9.30478104281378
C         9.57593965184261    8.51144960019429    8.60417434664786
H         8.51041636762930    8.72980660479958    8.64902998009273
H         9.91023386465487    8.61556919539493    7.57553167003236
H        10.10119523686974    9.25469536589560    9.19875237846042

