63
CSD_code = JOJJEZ | q = 0 | S = 0 | Stoichiometry = C31H26ClN2PPdS | MND = 4
Pd        5.41812384191618    1.94438547536641   14.16781363767299
S         6.45543802670263    3.90906449270192   13.60109621926796
Cl        4.31734635061672   -0.00180426227584   14.74053307812255
N         7.31633800204229    1.25512925576247   14.57883648604889
N         9.11491085023373    4.25105675278728   13.91622205120872
P         3.35539420058881    2.64467413636994   13.74537691075182
C         7.54990176898971    0.00444952454895   14.97314663319493
H         6.68288849511060   -0.64438153115035   15.04901414401545
C         8.81764251828587   -0.45800991771808   15.27789644786977
H         8.95358506174362   -1.48028730899856   15.59236028794286
C         9.89189678969291    0.41469545353454   15.17187075560895
H        10.89465110777123    0.08863379428235   15.40406300012729
C         9.65085625242554    1.71002441292330   14.76224634116626
H        10.43532166192480    2.44151167494564   14.65615434358741
C         8.34614318166610    2.10917099105057   14.46685396282360
C         8.09602884713919    3.48805537101713   14.01898722088369
C         9.11685567133016    5.58626810149950   13.59505453630931
C        10.14706647952363    6.04368982349731   12.76805625337402
H        10.83636820591548    5.31921739135798   12.35910709397020
C        10.26997386933936    7.38422348978575   12.45404113633492
C         9.36457061635243    8.28950468876793   13.00032857724147
H         9.45602899961730    9.34094779703900   12.76767614126758
C         8.35814822424573    7.85150094450724   13.84230964000344
H         7.66796809025160    8.56453526351970   14.27093464646120
C         8.22140442615901    6.51017080492195   14.13828821751465
H         7.44477722764361    6.17289035780526   14.80732110840518
C        11.35685130627103    7.86621043984743   11.53972929689886
H        10.93067795736330    8.19864104265571   10.59300534413513
H        12.07323429822966    7.07470906704805   11.33484313564660
H        11.88290436639921    8.71054028198070   11.98245218843164
C         2.41017777637657    2.82790530510882   15.28125945018914
C         3.09769986930219    2.62145140169413   16.47458113501381
H         4.15236118196052    2.32156374590005   16.44007817823258
C         2.44782342429502    2.79078727526117   17.68354095974697
H         2.97675880052318    2.62594212275036   18.61045076734825
C         1.11590218796373    3.17293969198331   17.70309442558698
H         0.60551422642543    3.29794739775159   18.64658191055669
C         0.43898779025615    3.41001285075395   16.51685626156377
H        -0.59349898762532    3.72682718325032   16.53880618115183
C         1.08470989924907    3.25016775026494   15.30435273849579
H         0.57176983079130    3.46703629682392   14.37724717240635
C         2.59185767270817    1.46042434911775   12.60440636274901
C         3.48072713318557    0.96060979220330   11.65108345499897
H         4.52596530648060    1.29652105460983   11.67341086822436
C         3.04902407196432    0.03871633147339   10.71879837208679
H         3.73517761058505   -0.35273668618200    9.98236067881904
C         1.73168776999152   -0.39688794122822   10.74257532323802
H         1.39412332175049   -1.12609341316191   10.02108027325204
C         0.85476754814863    0.08457809944936   11.69919375055509
H        -0.16447446595293   -0.27208447348671   11.72502748648682
C         1.27886574085528    1.01571978343220   12.63365028775675
H         0.59931771452029    1.37209328186567   13.39332032689759
C         3.08407596810937    4.26298563930094   12.95969144604121
C         2.54129302637001    4.41630503374810   11.69062344275159
H         2.22559839263720    3.54812287252494   11.12835656690063
C         2.40909104957914    5.68438344550435   11.15071933758892
H         1.98595681873480    5.80460423521651   10.16402261182674
C         2.82388149836292    6.79438089247846   11.86673542691979
H         2.72655529258508    7.78008354225571   11.43637628409177
C         3.37073023692291    6.64276609989700   13.13208861071350
H         3.70155868188622    7.50850109406094   13.68606896607979
C         3.50034466178851    5.38154281805152   13.67802073637930
H         3.93597225377716    5.24346531795042   14.66042136906994

