26
CSD_code = JOTQOA | q = 0 | S = 0 | Stoichiometry = C12H10AuBr2N | MND = 4
Au        1.64176427432403    3.52591698499455    1.10367520685495
Br        2.04730994846184    2.59238883042215    3.34450362404101
Br        1.43901355590146    1.33180133131309    0.23157836730845
C         1.75166083912569    5.87894370253903    3.00130794659295
H         1.97508627115042    5.11111658834882    3.72857148708658
C         1.52463102594019    7.18157434017381    3.39431968396035
H         1.59437058061266    7.44811584980186    4.43539501846112
C         1.16190104645164    8.10207667501072    2.42229357794777
H         0.90597969318121    9.11571416081000    2.69081914806701
C         1.12547576707181    7.70552033081809    1.09976177868640
H         0.80550827285845    8.39922886916209    0.34503658087032
C         1.45146074095006    6.39294521814214    0.74960839709136
C         1.47638946014504    5.84985898659359   -0.59854878686030
C         1.40242410483255    4.44601945485705   -0.68422095664374
C         1.28541455081798    3.82612701583363   -1.90825213934285
H         1.20384671202941    2.75450887564996   -1.98689721106546
C         1.28068674644131    4.58582439533717   -3.06968345057454
H         1.17442474869113    4.09571962002019   -4.02513380571693
C         1.46508358762339    5.95054003879920   -2.99879618403305
H         1.52953374319624    6.52765109618472   -3.90964212881881
C         1.58053029393711    6.60799261613503   -1.78013297248117
C         1.87604903528844    8.07787727079513   -1.81613480527002
H         0.95970614418622    8.66677631633350   -1.76198294165571
H         2.35784317223154    8.32114151150575   -2.76112129901144
H         2.54105836580846    8.37527963457351   -1.00860495039432
N         1.69774731874194    5.49784028584494    1.72978081490047

