68
CSD_code = JOWBII | q = 0 | S = 0 | Stoichiometry = C25H37ClOP2PtS | MND = 4
C        -0.13194255873019    3.48447771097273    9.72437775970891
C         0.26827079251461    3.09521212816054    8.44079348687670
H        -0.47596156325705    2.85720693055349    7.69068692084545
C         1.60205340545313    3.01446898424030    8.09865367548954
H         1.89968960152671    2.70751945556990    7.10612129266813
C         2.59078017110400    3.33409894277236    9.02576163945138
C         5.18420972857110    3.55876534706696    9.90703593999558
C         6.56886059546873    3.42707063739430    9.78543125320842
H         6.97835216155104    3.11474060450734    8.83619263095513
C         7.39266249622077    3.68834664585861   10.85670663199516
H         8.46160502663872    3.57932854559450   10.75059648061211
C         6.84659825489034    4.09063975265950   12.07190979603692
H         7.49003630688150    4.29560040696860   12.91388726558846
C         5.48381501601543    4.22701079103890   12.19136553190324
H         5.02973034847457    4.54170827166902   13.11941824666848
C         4.62187055790540    3.96598211826487   11.11861855835575
C         3.17843677841315    4.14974167518134   11.35859741090668
C         2.23195664285425    3.74258725119539   10.31029403027020
C         0.86804587324145    3.79245885312387   10.62957043316186
H         0.62748765791874    4.09387204829111   11.64278625290980
C        -3.59830710887878    0.82409855845315    9.29732541561870
H        -3.59063132381883   -0.26171417369159    9.17145570343134
H        -4.56529819714350    1.13099351232293    9.70332157631792
C        -3.35193810244431    1.53340580110349    7.96948640223365
H        -4.17906479138707    1.37168634904587    7.28086504903402
H        -2.43699060358643    1.17538250083203    7.50077865446701
H        -3.25461603957835    2.61135132151019    8.15012454539551
C        -0.92922823370635    0.19700755464160   10.15309808467288
H        -1.31524288394693   -0.82272929614893   10.07433934572614
H        -0.52618728905852    0.48201238753075    9.17798663786991
C         0.17100964614230    0.28346964504068   11.20229863836019
H         1.03933551454016   -0.29511098060881   10.89242309695411
H        -0.16924820227301   -0.10092398012049   12.16100318824016
H         0.47962379764109    1.31875201242974   11.33699088625655
C        -2.97475050500897    0.78762570376262   12.14011874535698
H        -2.23949797469987    1.07578205478532   12.89800789602797
H        -3.87531647268852    1.38158983661758   12.31740672915983
C        -3.29268434849481   -0.69893025897854   12.24121424094679
H        -3.70830553211095   -0.91587540463108   13.22361406988661
H        -2.40122000149910   -1.30863067845012   12.11272861559500
H        -4.02639871642850   -0.99258131478849   11.49433403680917
C        -0.46735216036176    6.84003328630840   10.04262033775633
H        -0.65085772057697    7.88000852601846   10.32897833421105
H         0.22998897811335    6.40842298426712   10.76387705513769
C         0.14588079559124    6.77415050045718    8.64991791347601
H         1.15620007137310    7.17865758430797    8.66562870821036
H        -0.43667741785935    7.34964937804954    7.93439487216784
H         0.19675094884911    5.74281571952130    8.30674397843316
C        -2.62608691431883    6.45499746986733   11.85839897483074
H        -2.48820398580168    7.53409317631536   11.97517791679043
H        -3.69194366354809    6.22464106000219   11.92405113128974
C        -1.87576196118132    5.66979555404658   12.93016767017045
H        -2.29782507178154    5.85918108962944   13.91534584166907
H        -0.82015516884789    5.93379547625107   12.95094816845498
H        -1.96490614771443    4.59685263631994   12.71806392834191
C        -3.12094251563662    6.84670233639602    9.02007680165120
H        -3.05860519357921    7.90702698280776    9.28978774918009
H        -2.68033126603577    6.71857141699276    8.02671498772019
C        -4.56903965307942    6.37941690850646    8.99277601393227
H        -5.12681953955143    6.92280755230704    8.23211294717962
H        -5.05192429398073    6.53790406538803    9.95343606113906
H        -4.61970938737159    5.31620432269015    8.76864161976783
O         2.77841047383144    4.62730624214051   12.41252470003484
P        -2.32402606207720    1.35282781368546   10.51413938698532
P        -2.05616915421688    5.90982006692043   10.19963381506019
S         4.25103998266305    3.20808298982713    8.47191431871546
Pt       -2.06066797770219    3.61196362800653   10.28101818578045
Cl       -4.34596591992435    3.65947298104846   10.99528178597549

