32
CSD_code = JOWBUV | q = 0 | S = 0 | Stoichiometry = C16H11ClN2OPt | MND = 4
Pt        3.37337058181847    0.19715511530966    5.55500314046202
Cl        2.84845232632932   -1.94312523676133    5.14965616430290
O         2.40133203463122    0.67614113078950    3.87899324849679
N         4.34837684614052   -0.17027625426028    7.20567020290549
N         3.86068686581928    2.08695403631814    5.95290163174726
C         4.56731741016106   -1.33696243738961    7.78422408562477
H         4.15526064862385   -2.20321688330826    7.28059797376242
C         5.28678351561637   -1.46009818318051    8.97856408884095
H         5.43285926070415   -2.44111390674541    9.40120759297505
C         5.78963575127934   -0.34146490970074    9.58950658753524
H         6.34706094599788   -0.40429972395915   10.51192083386572
C         6.04035963580337    2.13215680334940    9.54488658789064
H         6.59982189603104    2.10672774748180   10.46708018559768
C         5.78174228019843    3.31753266701110    8.90991748915866
H         6.13822540734031    4.24425064463567    9.33360808703355
C         5.06020152536059    3.36283323122964    7.71275007108111
H         4.88453523221863    4.32492691977816    7.25836209987648
C         4.58418753381456    2.20093849645118    7.13217175325687
C         4.83910485420043    0.96121580980620    7.78876113788763
C         5.57152096321817    0.92081209363318    8.99697015572073
C         3.55422397741852    3.10688895745386    5.19217176957261
H         3.88764081851552    4.09980709828644    5.49047765660485
C         2.81973668596713    3.06259966265470    3.99229871131966
C         2.28398957203569    1.85938700121965    3.40827397932121
C         1.55727992124615    2.00007095465253    2.19115972704819
H         1.15939863575711    1.09139504992806    1.76595421588541
C         1.37204118083950    3.20878528119026    1.58945693510731
H         0.81550145659685    3.27224295645007    0.66590101044422
C         1.90034540990860    4.37906746104520    2.16026000802376
H         1.74930752906223    5.33079075029214    1.67506679152377
C         2.60048760328564    4.29596266678827    3.32619578363443
H         3.00961169405933    5.19161499954984    3.77363029349262

