43
CSD_code = JOWJEN | q = 0 | S = 0 | Stoichiometry = C20H18Br2NPPt | MND = 4
Pt        9.08033656015089    3.62815350788389    8.06899169436987
Br        7.69217675532897    4.76797285546256    9.63216456558722
Br       10.50471585469861    2.74229507905236    9.82444684964073
N        10.21846488033189    2.72870105504148    6.82812288814452
C        11.04777163029578    2.13157013734866    6.29750209974075
C        12.06419909714765    1.39308385602836    5.61919101150032
H        13.03150125738386    1.86462822399784    5.79378321361465
H        11.85670506865590    1.37210854894791    4.54911437932472
H        12.09073998186127    0.37468740481055    6.00755308469329
P         7.74491672830116    4.52441686291702    6.41849467954305
C         8.41302702862519    4.28971486006006    4.74065962032319
C         8.38063616537850    2.99603014889532    4.22316596082645
H         7.90819561298826    2.20854456736310    4.79742885178761
C         8.93956072888473    2.72524121739174    2.98997540224153
H         8.90485583828553    1.72211409828684    2.59010461947700
C         9.54400311916377    3.74229593284009    2.26601130017946
H         9.98298432500535    3.53130306725946    1.30222286760005
C         9.58345942033210    5.02781561286510    2.77871828826573
H        10.05261760524114    5.82025635790949    2.21450417993844
C         9.02327732567148    5.30449501158064    4.01429680988203
H         9.05440525541769    6.30930365596812    4.41185340357214
C         7.61632602668338    6.32406282674012    6.60176246517884
C         8.78078721984665    6.97628515459230    7.00414746615055
H         9.68046583970565    6.39248753693517    7.18585650742337
C         8.78074928235419    8.34338278277241    7.19533899879121
H         9.68205563917696    8.84514690796220    7.51396973819447
C         7.61366215702720    9.06485026850089    6.99452054431747
H         7.60767743123368   10.13262977077963    7.15404599304022
C         6.45233049299835    8.41720336193621    6.60900953413816
H         5.54102851235738    8.97965312973989    6.46992032170355
C         6.44648197888119    7.04653778456122    6.41273790578483
H         5.53341011828162    6.54170475094069    6.13240116050598
C         6.05456607715064    3.89377030104444    6.23103785214426
C         5.32716164612346    4.18196688672566    5.07767607864713
H         5.77603084076692    4.77653837624980    4.29259520430757
C         4.04039266121165    3.69782762794642    4.93939359903612
H         3.47494845556198    3.92375528007229    4.04711246537448
C         3.47673490132916    2.92269966326423    5.94191788372779
H         2.47021571107790    2.54830210169850    5.82904121292305
C         4.20341504946557    2.62334120323609    7.08192148939756
H         3.76760755799075    2.01443285707450    7.85933041176119
C         5.49267265543678    3.10469440992400    7.22736863200458
H         6.06502950622438    2.87029495540575    8.11588876520567

