57
CSD_code = JOXREV | q = 0 | S = 0 | Stoichiometry = C27H23ClNO3PPd | MND = 4
Pd        0.59364469802719    9.11412154521814    6.00855620115663
Cl       -1.07684786844666    7.79994357589561    5.14057756391393
P         2.61398041676664    7.99998842818932    7.51273271175229
O         2.87680081986612   11.11899018934072    4.59728710774654
O         6.96928569431920   11.81108876004568   10.83916539839828
O         1.90054499673700    7.46814758373262    6.31225420177917
N        -0.33084301311245   10.74747846626857    5.57578166538378
C        -1.61810439411701   11.02440158617043    5.39915498839682
H        -2.32377823654985   10.25516974129672    5.68900114930099
C        -2.02239714399541   12.22852593198136    4.84527169202136
H        -3.07364647029576   12.43148384983900    4.71882081094467
C        -1.06479008748345   13.14807186273878    4.44121256545781
H        -1.35947499924995   14.08287408268792    3.98915254127243
C         0.27752205367142   12.84391510523696    4.61460284999248
H         1.06198165794861   13.51204220191256    4.29674363435565
C         0.60794700666442   11.63525876809399    5.20279560371420
C         2.00023719351540   11.08369317132812    5.45316270304024
C         2.05718052016663   10.42670137233133    6.74561878396783
H         1.58072561910181   10.96070100634101    7.57307499049940
C         3.32742984419001    9.67029212435984    7.07638809865383
H         3.85344258317050    9.47738180117976    6.12626990062035
C         4.28354635079127   10.25954860050771    8.06259319137314
C         3.87247984411537   11.03488527358065    9.14358643983175
H         2.82605121082982   11.25458188198528    9.29321173685566
C         4.78918321174634   11.53310961604652   10.04469174922412
H         4.47267723839922   12.13426793771894   10.88240417073126
C         6.15213466396514   11.27549436926026    9.89177892961095
C         6.57288697763465   10.50770837963694    8.81121769409942
H         7.61728579182299   10.29003039913065    8.65402596329516
C         5.64289012902895   10.01308938960838    7.91408063122385
H         5.98494326827947    9.41650311247712    7.08031791611808
C         8.35781726822920   11.62163159260032   10.71429657111389
H         8.73856516243770   12.04529650218951    9.77958340563112
H         8.62650532986101   10.56151092787534   10.76928127680467
H         8.80372470439865   12.14891110080774   11.55614311143717
C         3.90115898316358    6.82791727601182    8.01944318843634
C         3.95376865971870    5.63137484341263    7.31422978605425
H         3.23192522818111    5.45883395511276    6.52912053431548
C         4.91876527902187    4.68900909824151    7.61924175275407
H         4.95773686865193    3.75950729321528    7.07127527004661
C         5.83570476980251    4.94218765427040    8.62639450474396
H         6.59249630736667    4.20956847611252    8.86456037344654
C         5.78632010993172    6.13681965716778    9.32740260501429
H         6.50430748951092    6.33415959606795   10.10979973034173
C         4.82149633705735    7.08178128224454    9.02911264495092
H         4.79711491731495    8.01397167376347    9.57134273821622
C         1.45388472451408    8.25175750449352    8.90568444242299
C         1.88188200960196    8.69741369919661   10.15068018685624
H         2.93120142790650    8.86508363010221   10.33522727090071
C         0.95972581604209    8.93876366311195   11.15446078339449
H         1.29845160429922    9.29191836207375   12.11719209615259
C        -0.39071866472615    8.73304790148727   10.92448787960235
H        -1.10703582387633    8.93182960553672   11.70766550793368
C        -0.81978833358515    8.25564747997158    9.69610038736381
H        -1.86831119803386    8.06650509396266    9.52192425071356
C         0.09568858376837    8.00871973331448    8.68466213461012
H        -0.24780713806134    7.56524228352159    7.74585398199313

