65
CSD_code = JUCCUH | q = 0 | S = 0 | Stoichiometry = C25H32Cl2N4OPd | MND = 4
C        10.11093609537917    1.37694164556253   20.87291137705590
H         9.42660694776425    0.58110864175329   20.58381667766422
H        11.11890960491661    1.10365181870722   20.56954533590974
H         9.82971352226894    2.29296875749893   20.32605998074038
C        10.05891899749571    1.59463201300030   22.39124321697336
H         9.04961545977594    1.93997783130382   22.64921850876667
C        10.28565074284016    0.26740422374861   23.11291924186358
H        10.33620450883568    0.41559894083343   24.18938197751768
H        11.20401822372293   -0.20765296445800   22.77729049483804
H         9.46085110933997   -0.40954793184812   22.89886127194698
C        11.04643235364187    2.67391517928981   22.78913613717092
C        12.27032665200170    2.39041907239137   23.37515175479784
H        12.54153145260545    1.37052300810957   23.59447491579051
C        13.16196139673650    3.40275506715689   23.68168375087385
H        14.10712070077773    3.15978575508616   24.14461724442390
C        12.86243778266998    4.71838001009584   23.38274486106353
H        13.57980457065418    5.48971742820895   23.61223374704068
C        11.65953899085507    5.04767905666376   22.77745154750371
C        10.56946467873053    7.14070288238608   23.57824818984987
H        10.30946972185284    8.16588812559423   23.32304966786153
H        11.20752481263945    7.15347746932817   24.46020944640561
H         9.65368815473593    6.60549604417293   23.82336822239011
C        11.29978044382081    6.47171411936631   22.41004485014045
H        10.60798083200423    6.44456103651999   21.53771134466085
C        12.51441850742932    7.29565570868972   21.98708942706552
H        12.18616042188708    8.24801329338402   21.57550273509161
H        13.07333097175899    6.76347918705665   21.22130299454922
H        13.17029463599226    7.50166471583277   22.82975608800484
C        10.75193915698391    4.01560156016296   22.50835051531899
C         8.41853708703328    4.39606057168246   22.49176921151710
H         8.35289206422014    4.20535534154893   23.56244386748096
C         7.26204737504080    4.70316938879902   21.74500887211500
C         5.90385877973512    4.74129981767667   22.07930582335606
H         5.48493485274418    4.58139624771229   23.05320354337309
C         5.22937543093323    5.00971255887573   20.89966879768138
H         4.16937218747873    5.11271918548634   20.76627057404810
C         6.19570907013533    5.13779960856145   19.89587202979079
C         5.89931732899299    5.43854705075783   18.46152528342544
H         4.82272626379742    5.31044770247085   18.30811309225964
H         6.16842907921821    6.47352474178799   18.22656921396792
C         6.70566261804328    3.17421820131479   17.91750428358161
H         7.12727286523669    2.57955141660551   17.11003057575942
H         5.71736149636974    2.79423753640145   18.17745497890121
H         7.36906096388930    3.08974901507697   18.78664339470862
C         6.11090846544141    4.72114744006230   16.13163312875859
H         6.77147103331080    4.15384939463265   15.47025143649079
H         5.10384253640556    4.29042134252828   16.08305121938864
C         6.07732263372989    6.14568532607567   15.69239096248729
C         7.12790660676860    7.03072701000716   15.51349083163636
H         8.16155522742395    6.80720910036406   15.68427198087785
C         6.58183025706654    8.24800615151966   15.10454064067261
H         7.11906624296945    9.14710758010844   14.87980640252884
C         5.20393507264918    8.08435390675766   15.03768999459851
C         4.14392352610118    8.98507564262984   14.67107548891274
H         4.48419198411480    9.99794868684472   14.39226734703270
N         9.54655085411661    4.33889796652273   21.87043970083232
N         7.42493208402342    4.96007912741116   20.40568749808467
N         6.63528903787866    4.57840757337951   17.50389771445391
H         7.71307699273917    4.96567813140341   17.51808712653530
N         4.92780952100597    6.79584006237652   15.40922727467427
H         3.98841048897045    6.42879190621078   15.42200490667189
O         2.96957813899353    8.68155021865947   14.66207416144030
Cl       11.67130583136031    4.44640132746113   19.62092214439366
Cl        9.36974800561264    5.45714303702616   17.77286310859904
Pd        9.45395653896990    4.79097899139750   19.94696786587441

