34
CSD_code = JUCQON | q = 0 | S = 0 | Stoichiometry = C8H18Cl3O4Y | MND = 7
Y        -0.47784149702101    1.95066233099362    5.86561808562062
Cl        1.79422874408175    2.51876713531545    6.60594690069939
Cl       -2.95273961588331    2.04264841963408    5.57499177192254
Cl       -0.20662189702617   -0.41001473691415    5.27226569987821
O        -1.14334223051043    4.39356109956318    5.45158238847226
O        -1.09935857800887    3.40973360257949    7.96459762419443
O        -0.86299120594691    0.68985761451318    8.04675272376623
O        -0.06275113864566    2.46314102119610    3.57651004903482
C        -1.14481581554316    5.31257048459972    6.53715794342748
C        -0.50832489956273    4.69383893576062    7.78885906180285
C        -0.71202823218505    2.76909800030246    9.17081575873068
C        -1.37808752482078    1.39600011146383    9.17016947875821
C        -0.70195045154460    1.65116259939009    2.57896668410872
C         0.35638702506131    0.64635912321402    2.09111818158396
C         1.67121758743160    1.18913069903225    2.67580239452214
C         1.28638550754450    2.59981205141585    3.11458890762909
H        -2.16835964951653    5.62492129030480    6.76252978819214
H        -0.55740030869291    6.18517883367302    6.23368315457454
H         0.57650203613591    4.58424193196223    7.65068604462055
H        -0.70912956419108    5.32613853901297    8.66336743137783
H        -1.04704661590051    3.35688226779243   10.03614989653765
H         0.38080548973373    2.65022453099834    9.20134132882133
H        -1.13840076933234    0.86616262961579   10.09992754946644
H        -2.46520719468100    1.52078004732817    9.07568259288535
H        -1.03234587726784    2.30745500407353    1.76265938751476
H        -1.57332072914245    1.17358997901292    3.03562674983202
H         0.14859478858942   -0.35067572860199    2.47332990156672
H         0.38107198848660    0.61033346392361    1.00317900661282
H         1.96399620640077    0.60364545462539    3.54980281952905
H         2.48777365424543    1.18777943271817    1.95787230989192
H         1.29896398677972    3.29838123941430    2.26609190253012
H         1.89575233455694    2.99532419790219    3.93065131603006
H        -2.04800165509490    4.01396191509521    5.37281438391158
H        -1.27301389853402   -0.18935352090476    7.99676078195273

