52
CSD_code = JUHKAA | q = 0 | S = 0 | Stoichiometry = C22H25ClIrN3 | MND = 8
Ir        2.80957947392752    2.30789463585642    3.22085272238404
Cl        1.11851307901666    3.73718156524397    3.97417679947299
N         4.03444849627395    3.94636794419463    3.04329942997984
N         5.76424526285261    5.17568389787930    1.96001953817564
N         4.25180191171866    4.02206829247705    0.71813140398645
C         4.42579537507983    4.47193248707265    4.20456306708607
H         3.85520390611321    4.18431263386189    5.07714822887111
C         5.49229462954354    5.34671277824725    4.30527455880679
H         5.78777840825159    5.76165874894319    5.25289040238459
C         6.16447832275257    5.63816171127704    3.12472509648357
H         7.04378283311294    6.26761386752285    3.10170374142836
C         4.68560305137769    4.38242731373962    1.92752980013203
C         3.06841069945016    3.33724058787061    0.41971387945732
C         2.80569840024903    3.43056388236925   -0.94581683158384
C         3.89087983612232    4.21153398070318   -1.63102294882619
H         3.48690975861046    5.12082405161312   -2.07934264301713
H         4.35951203013727    3.62854557582057   -2.42485846792838
C         4.87791429866738    4.52945631824640   -0.49682966932643
H         5.84176309014535    4.03195011960522   -0.63653413763008
H         5.06726082151140    5.59871617257244   -0.38489869471765
C         1.66760587979987    2.85974846243457   -1.47092497443322
H         1.45042466813725    2.92720988342619   -2.52616835306080
C         0.80254167127369    2.20713119151734   -0.60308605613318
H        -0.10623059427939    1.76789319006063   -0.98708549851573
C         1.08967948519677    2.10793059082244    0.74922170764639
H         0.38465312184290    1.60406254375781    1.39406697089009
C         2.24515987133947    2.65524285854482    1.30687686466912
C         2.81240711057439    0.88324176880431    5.09536088079385
C         4.14630820080344    1.05397055377732    4.73682530619535
C         4.29647839959890    0.64665301393505    3.35248990375399
C         5.61172077408876    0.49953129250867    2.65372347910838
H         6.09115448296677   -0.43652355491410    2.94791264002124
H         6.28678480093738    1.31558765571188    2.90788712049074
H         5.47911927885418    0.48861341712474    1.57394004580821
C         3.05536060703424    0.09550975860861    2.91635237705151
C         2.09628850181062    0.35691093274450    3.94213673857875
C         0.70181603742151   -0.18392090243754    4.02123434432513
H         0.32215286282717   -0.43475327375573    3.03392964977182
H         0.03401112120116    0.54588848039500    4.47469451010880
H         0.68675718513276   -1.08734382573903    4.63452354021854
C         2.83686305296059   -0.69990455823657    1.66805058728003
H         3.05643727713934   -1.75106518829460    1.86416173649533
H         3.48566431983286   -0.35878441134326    0.86481471278546
H         1.80859130002456   -0.62225739507252    1.32552132462262
C         5.28042287989888    1.48329393359717    5.61240688300028
H         4.92258029196082    2.00632512192571    6.49677562303113
H         5.96585831088390    2.14264255489564    5.07983472132267
H         5.84807464955128    0.60996841492749    5.94065041488332
C         2.16883310458910    1.12080517580399    6.42124700377490
H         1.75499119650994    0.18888204402225    6.80866857207007
H         1.35183144994204    1.83568935444969    6.32168477094496
H         2.88148501523207    1.50937435088414    7.14504717688274

