23
CSD_code = JUJSUC | q = 0 | S = 0 | Stoichiometry = C7H8CdCl2N4S | MND = 5
Cd        7.03870041843189    2.15335838950306   11.74912501729488
Cl        6.00564258115252    1.87158006995966    9.61124609589857
Cl        5.51120151448825    2.46658618887927   13.48570532119993
S         9.11021020402261    3.84062571547050   10.69373243815656
N         9.38215627704358    3.58322311041790    8.10678678679604
N         9.09286488804004    1.60780968292712    9.24914951833859
N         8.75115393996247    0.92175843184390   10.33022477693827
N         7.55940715492542   -0.17516347313531   12.45680523100019
C         9.15846117025394    2.96909478793731    9.28301098616441
C         8.53808764858350   -0.33288946396322   10.29823809315227
C         8.02117434597482   -0.98075726510023   11.49062209020686
C         7.95824264057296   -2.37078648228009   11.59967128700499
C         7.41357635215186   -2.92655935666220   12.74448664828019
C         6.94440707420817   -2.08329160426945   13.73964717100167
C         7.03614424318337   -0.70999181965918   13.54579074483939
H         8.66141020276626   -0.93395785025781    9.39381693632811
H         8.33162850348143   -2.99435230733586   10.80182757915277
H         7.35160539421575   -3.99893593827643   12.85550501678870
H         6.50630251088086   -2.47691349649104   14.64261789494541
H         6.66546336330888   -0.00766275519094   14.28243086832745
H         9.34205357160044    4.58963304620578    8.11121506996542
H         9.19520425642468    3.11620479090121    7.23342750888304
H         9.04860174432586    1.14948759858036    8.33411691934060

