44
CSD_code = JUMHAA | q = 0 | S = 0 | Stoichiometry = C19H22ClNZr | MND = 13
Zr        3.77814280287914    3.67628452344059    6.84402962760864
Cl        3.32651766632424    4.84239521018161    8.90234302464740
N         3.31337036373032    1.58742679802504    5.82807944395704
C         2.62321618975740    4.10910354136643    4.57466177112470
C         3.69084396507785    5.01815188803582    4.71610571929887
C         3.37826656083600    5.89278005793270    5.78705632833980
C         2.11460495699681    5.52118735098686    6.29167403125619
C         1.65901293190151    4.40606830251595    5.56228556390974
C         5.84997294657475    3.07191717857106    8.18562225886514
C         5.88006648228108    2.31901673810305    6.99108125889832
C         6.08130577896385    3.21804106908635    5.91822456256825
C         6.19319196130691    4.51977912762247    6.45810623728370
C         6.05978771349571    4.42567224693300    7.85233169620517
C         2.45782986187332    2.13957911357942    7.94241655539960
C         1.28890644356333    2.35817392069987    8.88219632314332
C         2.21453951236701    1.58149279332330    6.65299378537981
C         3.22455329884015    1.02212686329810    4.61356720609239
C         2.04007164103870    0.49437380090242    4.13177126713370
C         0.88885717262131    0.57751308753137    4.92028539115994
C         0.96216531982549    1.11990233392530    6.17487361580963
C         4.49680039979113    1.02247425772841    3.80233121080091
C         4.49304731142940    0.11194030482855    2.57995873012375
H         2.49068243639763    3.40840001113438    3.76169306601459
H         4.51384047268991    5.13602428805677    4.02002332123244
H         3.93815924321300    6.77472659173005    6.08009957326931
H         1.55607857962500    6.05162801783035    7.05184495478885
H         0.67688242759925    3.95621404507969    5.64201644184278
H         5.79832635924245    2.67510437278613    9.19322218934459
H         5.88472305790372    1.23694377963609    6.92840828067725
H         6.30785597081924    2.94864854565637    4.89588259475016
H         6.48127962047375    5.40994997515163    5.91148403578910
H         6.17190462434985    5.23721706895407    8.55819300662184
H         3.35165802966011    1.73401621861250    8.44538182639400
H         1.62419606117259    2.89000201822315    9.77147689547106
H         0.51485261695192    2.96108718725230    8.40151842351796
H         0.83923434800261    1.41253712732423    9.20484502339417
H         1.99014395144802    0.03501984776572    3.16020240311882
H        -0.04721821108045    0.19255749678240    4.54209190068292
H         0.09446367004936    1.16776822816111    6.81285972598353
H         5.31312111364198    0.72776053168649    4.46618009688595
H         4.69051302650885    2.05141533349650    3.47968269540379
H         5.48092030120844    0.11022278858960    2.12463807623915
H         3.78131074625775    0.45500864970688    1.83298995022634
H         4.24530027238948   -0.90935263223417    2.85926990934490

