52
CSD_code = JURSUM | q = 1 | S = 0 | Stoichiometry = C22H22BrN6Pd(1+) | MND = 4
Pd       -2.14789302352739    9.52300534486831    7.31862247398990
Br       -2.99950799146652    8.78501310192780    5.21986019293950
N        -1.47741092653875   10.44472724752482   10.29091676529565
N         0.09004518925734   10.36335057245815    8.81413369515502
N        -0.24358383586891    9.98841874272483    6.56855937946354
N        -5.10044080964866    9.32355273690519    7.99577924817253
N        -3.86067873367035    7.85544711741068    8.96397971459584
N        -2.60302799696212    6.96310376051245   10.68688982247280
C        -3.56116362889322   12.12911357562505    9.19414919721486
H        -2.61472261314746   12.19047644558017    8.66965181447043
H        -4.34016658533801   12.76786533127340    8.81638613108466
C        -3.76597615789444   11.36486927020078   10.25151125820200
H        -4.72688889705165   11.36537797819215   10.74785009136962
C        -2.77283180121710   10.45442225389634   10.92472905741603
H        -2.63974486134498   10.78601358249402   11.95923035306025
H        -3.17384194770054    9.43391843849368   10.96105362465119
C        -1.24003398209830   10.14265749715606    9.00914753928181
C        -0.31564487945163   10.84546478563207   10.90285709619258
H        -0.28080986643048   11.13495157636743   11.93275970467141
C         0.67325534505897   10.79389393564795    9.98355456945427
H         1.71087708688834   11.03366899208544   10.07654128030854
C         0.64580431733261   10.25365027110984    7.53705224690615
C         1.99894839926572   10.43327691210958    7.28320232626979
H         2.68969105650442   10.63257000889830    8.08533842964024
C         2.43992457833250   10.34618662469317    5.97291088598216
H         3.48498887647664   10.48120949709544    5.74373019971867
C         1.51810723250610   10.08798356864777    4.97022741406761
H         1.81883945309685   10.02021160237723    3.93821357094935
C         0.18782310604153    9.91088102325458    5.31156818810174
H        -0.55531404312000    9.70087152185124    4.55177476799020
C        -7.68057262724996   10.30116096857080    5.86129845741900
H        -8.13986863633474   11.04665938855353    6.49071926066021
H        -8.28347794176717    9.91981730351897    5.05686739788774
C        -6.44237512142348    9.88878515690330    6.04984953224962
H        -5.99062078317454    9.14791986322026    5.40624353984758
C        -5.55392034715562   10.40654115360821    7.14620103695531
H        -6.09121840616923   11.13769006012778    7.75668644012771
H        -4.65467219742239   10.87865376549725    6.71626754886596
C        -3.83649935050485    8.92136083959511    8.13274852259135
C        -5.92687878173375    8.52800256972337    8.74891923869163
H        -6.98710214946907    8.67209796384160    8.76987605495360
C        -5.15033125645663    7.61264474423819    9.37209498696906
H        -5.39090248582940    6.81581008681260   10.04392819687042
C        -2.69664443093817    7.17960521525584    9.38602514766222
C        -1.71008377251025    6.82110552120569    8.46218882259180
H        -1.87047843820795    6.91238678051404    7.38603416490666
C        -0.56294714511648    6.22252045221782    8.96609310293318
H         0.22508694295839    5.91155514566536    8.29631136240350
C        -0.45269783020045    6.00668829284297   10.33298433428187
H         0.42451295862773    5.54197560777633   10.75232170071749
C        -1.51034883358715    6.37746328623476   11.14897183043240
H        -1.49108142592627    6.21140251705136   12.21658828099836

