59
CSD_code = JUTPAR | q = 0 | S = 0 | Stoichiometry = C28H24Cl2N2P2Pd | MND = 4
C         4.34999962309043    2.48032008294675    9.58454384891327
H         3.77048211277326    1.87094934046219    8.91806170915717
C         4.93951678072144    4.02624748943341   10.91125741732618
C         6.03389657995969    3.18016093544436   10.77374448740465
C         6.38449895587062    1.04763255884912    9.49522951463348
H         5.87433137499984    0.57169433169877    8.65877678138437
H         6.47252472163718    0.33002164591391   10.31458052829137
H         7.38414685525891    1.35269062057410    9.18172338611079
C         3.43302286537024    5.83212926227635   12.64513193767419
C         2.27317707985824    5.20435402305265   12.20267377462674
H         2.32617605392021    4.47284470944376   11.40973044141217
C         1.06292645266053    5.52977676441874   12.78951996090081
H         0.15763837660989    5.04718865032751   12.45011503219902
C         1.00747309483266    6.46847018070207   13.80747975884971
H         0.05785422796484    6.71550534924662   14.25961841237252
C         2.16650374148919    7.08632244587785   14.25073256281221
H         2.12264081357256    7.81214381926191   15.04896399090731
C         3.38283753642973    6.77051118260269   13.67432134532037
H         4.30142405976919    7.22877672589808   14.01976233558543
C         5.23810745257406    6.80581052533369   10.64586489818299
C         6.47852571021338    7.42364224224590   10.49840154512051
H         7.31021856382228    7.16346897916516   11.17346537959075
C         6.65416857077682    8.38210445742309    9.51589649318637
H         7.61187056740730    8.86791891156471    9.40152621025303
C         5.59923835461103    8.72155818873892    8.68351452557745
H         5.73759681781369    9.47253106970680    7.91964971701891
C         4.36625592554706    8.10472160171089    8.82964036528881
H         3.54711546064853    8.37441159618311    8.17918279768062
C         4.18076664750257    7.14601573836008    9.80886683903999
H         3.22504910511459    6.65655398884425    9.93196964847761
C         8.86992887271929    3.34194410087821   10.41941434392572
C        10.13983495068216    2.90196318096308   10.78121040778766
H        10.34036034213327    2.64617914616041   11.81146458080790
C        11.13586752571929    2.82909912627703    9.82453183400105
H        12.12158148687418    2.48727611251700   10.10267212685538
C        10.87618495229566    3.20484082677755    8.51592579268811
H        11.65805881173445    3.14871963374776    7.77327629526494
C         9.61976041809638    3.67101209985764    8.16074562953963
H         9.42412916332269    3.98346335228864    7.14542956757073
C         8.61771412903658    3.74717494632735    9.10999670608827
H         7.63923123992094    4.13209627296682    8.84736186834882
C         7.67405611332164    2.15487594853001   12.82748746890289
C         7.13285084833439    2.38388840723742   14.09302571200487
H         6.73352012720423    3.37902237889715   14.34631710497069
C         7.12710216083198    1.37228726278915   15.03489044531846
H         6.71762990285014    1.55252403937055   16.01745200279156
C         7.65714873984347    0.13036254284426   14.71969076830521
H         7.65874085121034   -0.65789528807068   15.45759599544619
C         8.19464306809836   -0.09927427332465   13.46387043632481
H         8.61426048569170   -1.06540408798597   13.22353609501767
C         8.20325047312774    0.90753343453376   12.51400242915985
H         8.63948876249083    0.73136337868437   11.54020636138258
Cl        6.82366843968679    7.04460341290446   14.34221252156868
Cl        9.31442586510217    4.94850797273361   13.29154305009650
N         5.62979141634426    2.19313331717687    9.91595836521986
N         3.90835799400907    3.56854688681492   10.15505653619087
P         5.06165742442016    5.51769418118203   11.92350372687814
P         7.57454754462906    3.54415826964326   11.66005066771599
Pd        7.09862340744259    5.36232599957173   12.84852551455145

