45
CSD_code = JUZMIC | q = 0 | S = 0 | Stoichiometry = C20H14BrCl4N2O3Re | MND = 6
Re        3.15156489644796    2.25619583770169    4.17096924510668
Br        2.57709278869872    1.02562855009743    6.34804670650518
Cl        2.06063437431906    4.59265589002253    7.14474773403964
Cl        5.95734651114984    5.34474439701428    3.51251269659294
Cl        4.07060214445189   -1.57750917265831    4.20654721339969
Cl        6.84532040034155    2.55132984935559    2.15792020804008
O         3.80859801413892    3.73880997666325    1.54632967240281
O         0.49743798113056    3.83131358991321    4.35467830924283
O         1.73596236851782    0.04566650836488    2.53756652235712
N         4.32516916304565    3.74078213676437    5.40746470220965
N         5.14914881391757    1.19892618229557    4.18808853231137
C         3.90966315968510    5.08151887760150    5.24320237175273
C         2.81446675329312    5.58621953302117    5.94978455003423
C         2.34172926969712    6.86512456852162    5.70570814511673
H         1.48742679564972    7.22522811979373    6.25519878748118
C         2.96855046273721    7.66241431381405    4.76504212272866
H         2.59495395055167    8.65447167548282    4.56830390043087
C         4.08034957367475    7.20050310756650    4.08272089821668
H         4.58732440002912    7.82240289615996    3.36275360270638
C         4.54960674931295    5.92318658584042    4.33279155053052
C         5.29946323291109    3.45959946053050    6.17947479823932
C         5.75029180864127    2.04354658260073    6.37113907673040
H         4.91804928629943    1.52531826685470    6.88966629230258
H         6.62810876636045    2.01874165276696    7.01544997389411
C         6.01294140953545    1.25652872290275    5.12328693549889
C         6.04009198206390    4.47326434716252    6.98742464814848
H         5.54740234553618    5.44237423507453    6.97112953858491
H         7.04719371643127    4.58646544658800    6.58476929872970
H         6.12595256072645    4.13162066372357    8.01778756706505
C         7.31598225864691    0.52841569374937    5.09947705613829
H         7.44932174322231   -0.01592715806441    6.03345541170584
H         8.12901135616653    1.25001603331550    5.01115310215720
H         7.37552142782590   -0.16869878056888    4.26708100555140
C         5.40881089269896    0.44294091180541    3.02249355432138
C         4.90047121046717   -0.85090525476877    2.87733782125612
C         5.06261396987278   -1.54719706299102    1.69093762427345
H         4.64951583549157   -2.53850252091752    1.60073391424579
C         5.75015780334418   -0.96616551016920    0.64063842592787
H         5.86821297563374   -1.50440865085740   -0.28610039974006
C         6.29885454832464    0.29715172836850    0.77473500259929
H         6.85355433986898    0.74947526257541   -0.03141018100600
C         6.13605846873749    0.98663962557482    1.96319138015029
C         3.62306638767293    3.19641279285254    2.54057333543530
C         1.47973862259072    3.24492116270664    4.28089983162231
C         2.25516448014157    0.87085892584698    3.14069751495715

