43
CSD_code = KACNOR | q = 0 | S = 0 | Stoichiometry = C8H24Cl2O4RuS4 | MND = 6
Ru        0.00000000165118   -0.00000000004591    5.58351931835917
Cl        0.00000000048814   -0.00000000116258    3.26283981383995
S         2.24784528262154    0.41903688535896    5.58348694920963
O         2.93937715860511   -0.87120067958374    5.58347915211572
C         2.96052077703755    1.34526629095915    4.19857134870114
H         4.03818843863860    1.25052719336887    4.25673409667809
H         2.58110257853512    0.89435421411725    3.28670248973363
H         2.62908713670089    2.37216558251005    4.28322515431993
Cl       -0.00000000085321   -0.00000000042848    7.90432596270233
S        -2.24784528215007   -0.41903688487738    5.58348694956229
S        -0.41903655253431    2.24784512160435    5.58349950905430
S         0.41903655148994   -2.24784512191796    5.58349950885005
C         2.96053628500714    1.34524666602886    6.96840923972511
O        -2.93937715880459    0.87120067961198    5.58347915274865
C        -2.96053628458205   -1.34524666600417    6.96840923973858
C        -2.96052077648482   -1.34526629038747    4.19857134895148
O         0.87120100456177    2.93937698477533    5.58351498605657
C        -1.34524965004034    2.96053635185476    4.19858129469896
C        -1.34526278212439    2.96052023555799    6.96841914503519
O        -0.87120100524404   -2.93937698568845    5.58351498588282
C         1.34526278152830   -2.96052023535455    6.96841914480098
C         1.34524964956511   -2.96053635212195    4.19858129480796
H         4.03820262979056    1.25050343120676    6.91023097765636
H         2.58112811451791    0.89432456903603    7.88027810775209
H         2.62910493400005    2.37214786977950    6.88377351358016
H        -4.03820262926101   -1.25050343127939    6.91023097749257
H        -2.58112811430062   -0.89432456905018    7.88027810780864
H        -2.62910493353040   -2.37214786967995    6.88377351366470
H        -4.03818843798939   -1.25052719290870    4.25673409693256
H        -2.58110257804693   -0.89435421325876    3.28670249016910
H        -2.62908713612675   -2.37216558188305    4.28322515417061
H        -1.25051127829798    4.03820350901100    4.25675601174018
H        -0.89432753971404    2.58112659766799    3.28671377241343
H        -2.37214976373749    2.62910128385928    4.28322056201510
H        -1.25051930177560    4.03818718757499    6.91025287156394
H        -0.89435050900561    2.58110379674973    7.88028932696516
H        -2.37216307050769    2.62908987433738    6.88376894299255
H         1.25051930148152   -4.03818718734046    6.91025287139473
H         0.89435050842669   -2.58110379664288    7.88028932675083
H         2.37216306981563   -2.62908987388339    6.88376894273680
H         1.25051127807535   -4.03820350923160    4.25675601214472
H         0.89432753940264   -2.58112659833354    3.28671377229304
H         2.37214976317052   -2.62910128390566    4.28322056219017

