43
CSD_code = KACNUX | q = 0 | S = 0 | Stoichiometry = C8H24Br2O4RuS4 | MND = 6
Ru        0.40214204628202    3.47910945461847    2.58474523475712
Br        2.03956272381387    3.88979683489561    4.37369285160007
Br        1.81144053235340    1.75360621280940    1.52405218262003
S         1.36888445940121    5.02936352044522    1.31472107181841
S        -1.04033296416938    4.82318393584241    3.66087925372672
S        -1.20099078707862    3.06754371249466    1.01420877357944
S         0.73404250583736    0.99414722871168    4.29849746588611
O         0.79532396759458    5.04153041059384   -0.02171083356531
O        -1.52341638530544    5.88442354073461    2.78106808609513
O        -2.23898190270745    2.28221469221028    1.67486683633967
O        -0.39729288109683    1.89583233990265    3.88215088806767
C         1.33308312405612    6.73910629759255    1.92987048737013
C         3.17139614606188    4.90089067930799    1.10334225339828
C        -0.61238728849110    5.66899985545537    5.22198281402627
C        -2.50706147492114    3.95444764431242    4.27812064432800
C        -0.75987603453642    2.16898255426390   -0.50618324232931
C        -2.07758903037314    4.42960240408957    0.19295349544148
C         0.15819497092721   -0.64529793527566    3.74951807573460
C         0.36119710345683    0.74742210714404    6.07304400947365
H         0.29577792612154    6.99697718164907    2.12189452272767
H         1.92168636260738    6.78035266680667    2.84023556478167
H         1.74527823858321    7.38295122606179    1.16215637056990
H         3.38645014172309    3.96776412415369    0.59195228397751
H         3.49494258074033    5.74269831434550    0.50334794673485
H         3.63602554149924    4.90322559914854    2.08359876138405
H         0.23607421196982    6.32119529513491    5.04450035685186
H        -1.47851709762347    6.24906135875420    5.51788989794873
H        -0.35200436034296    4.92724326761537    5.96752674068951
H        -2.83619195741854    3.26968237113234    3.49988678842070
H        -2.22490632655789    3.39633095789133    5.16302941308525
H        -3.26776244286199    4.69574377169524    4.49237384937510
H        -0.39915844410402    1.18071679741451   -0.24259306050544
H        -1.65118529238647    2.09464773255433   -1.11755839365941
H         0.01950911237702    2.73748293985880   -1.00168016994228
H        -2.33200025712553    5.17691892987834    0.93702446673204
H        -1.41746675452489    4.85547935375108   -0.55142585071498
H        -2.97328431776480    4.00573928198598   -0.24577941179101
H         0.38277198207620   -0.72264491434710    2.69107356514439
H         0.69109755519758   -1.41378855301168    4.29510336809777
H        -0.91151210685259   -0.70570875560712    3.91133257544987
H         0.61895410339873    1.67091649727643    6.58098713793374
H        -0.69271574554708    0.52648495927478    6.19322357675714
H         0.97789851571206   -0.05777589356169    6.45147935158245

