67
CSD_code = KAMZUW | q = 0 | S = 0 | Stoichiometry = C35H25ClNO2PPtS | MND = 4
C        11.76058181794106   12.60873347313525   11.21815498574780
C        12.74801338694718   11.83664500128693   10.60926533237011
H        12.54710389668730   11.37114289267065    9.65300009260089
C        13.98923392142498   11.63501581797172   11.18328800003037
H        14.72240520291011   11.02108467888756   10.68284226060189
C        14.27980602350204   12.21589253741293   12.41342013692801
C        13.32340497721586   13.02649293721906   13.02458967379653
C        12.07929257988407   13.23951690479794   12.45137128533123
C        15.52519607035187   12.04957533714389   13.15791390751404
C        15.55282916714623   12.72201850757983   14.37465186191206
C        16.63301505431214   12.68250816102987   15.22238246195286
H        16.60899385813195   13.22219105894110   16.15580229895298
C        17.73926026941637   11.93383936769430   14.84069584099929
H        18.60283760294342   11.88205318617194   15.48567829708004
C        17.73473727313359   11.25421391070472   13.63177790703552
H        18.60035574699183   10.67585117967770   13.34420414978101
C        16.63892340440005   11.30366721256341   12.78544701107024
H        16.65487293563751   10.76785589064390   11.84913824846320
C        11.02111802344393   14.08583864680834   13.00162234832148
C        11.12456387016729   14.87348275144177   14.14499228505436
H        12.03625536824846   14.89396123620335   14.71131240218950
C        10.04479531819675   15.64101187762363   14.54592454117159
H        10.11652967863441   16.25273437885236   15.43193446919389
C         8.88113919681672   15.61215593890494   13.79376310346257
H         8.01647395024681   16.19412776030705   14.06937667812572
C         8.84549298917419   14.81573243989911   12.66299524971816
H         7.95875613040945   14.75988457436546   12.04246940625645
C        10.46899158966199    9.88385359806126    9.35083736368576
C        11.15227592535306    8.99706459067946    8.53040928113720
H        11.36930086012600    9.26029502824502    7.50554188298160
C        11.57350604522221    7.77902865060699    9.03704778966042
H        12.10922672335706    7.09067760875419    8.39975802497821
C        11.31336235101114    7.44153181235852   10.35480973611097
H        11.64552657272784    6.49001831910857   10.74263649307439
C        10.63340639600908    8.32585887523271   11.17840678692521
H        10.43592161357909    8.06544959359822   12.20748531883465
C        10.21648573892222    9.54396565844703   10.67810471076636
H         9.69282939824129   10.26169029265064   11.30922060426477
C        10.83842142038746   12.06429719614700    7.42845823723625
C        11.65168383502030   13.17958216033903    7.59945859583886
H        11.65687799571640   13.67760370191671    8.56489833682254
C        12.42240231678328   13.64551352688796    6.54974143731812
H        13.05158863619361   14.51263926356313    6.68457226953316
C        12.37980883508119   13.00206772693518    5.32333823847195
H        12.98064176620245   13.36393487584668    4.50218857145086
C        11.55349615696904   11.90387759066187    5.14197485637151
H        11.50838906010393   11.41538965949301    4.17952902246618
C        10.77772493260290   11.43678470198228    6.18748790690572
H        10.10850510113349   10.60027966158338    6.03740265271364
C         8.26877603574985   11.09373649398597    8.03847916578570
C         7.58164379227579    9.92327108806778    8.33543563151428
H         7.99942221486246    9.21342546904684    9.03582517485211
C         6.35846075138207    9.67208031550889    7.73809983099230
H         5.82605459051918    8.76157389492642    7.97178050339265
C         5.81372333084404   10.58696639115967    6.85372033104858
H         4.85527439145277   10.39089288957706    6.39611514059125
C         6.49227654138252   11.76092381997949    6.56435330618336
H         6.06151894459803   12.48176340545604    5.88516172130922
C         7.71401239600654   12.01642682195224    7.15481411443553
H         8.24094114275023   12.93897382674372    6.95024014450203
O        14.26190936226380   15.03129219688784   14.56735969108346
O        13.27319251100433   13.09892428915253   15.71306689126127
P         9.84161943381521   11.51928588622767    8.84774293392534
S        14.01300507697549   13.61073336768280   14.58756853362867
Cl        7.59518278552052   13.29108812525200   10.15229389114107
Pt        9.85790940979936   12.89995923560109   10.63853856827864
N         9.87951630407296   14.07705072978698   12.27858207283602

