53
CSD_code = KATMEY | q = 0 | S = 0 | Stoichiometry = C18H24Cl2N4O2RuS2 | MND = 6
Ru        3.86010401334900    2.33576890777406   11.99151485788304
Cl        4.13639656217460    1.53212180503301   14.19179291293531
Cl        1.54922908594341    2.67224577452358   12.33585726127464
S         3.48328167551915    0.17552565784421   11.47142155804155
S         3.34089796914635    3.08239533784679    9.88616623758889
O         3.33076558025227   -0.10062731639809   10.04654966580376
O         4.42808726045993    3.06099011372777    8.89746786578064
N         4.19628029079971    4.19816281836588   12.72116251638940
N         3.42113464663818    4.59690854761184   13.73471983840688
H         2.61840219354879    4.02434838791757   13.98884458526307
N         5.83137481201328    2.07759240324773   11.65299965103944
N         6.31600554744748    1.89351990386984   10.41390487238945
H         5.72680005944977    2.12434139314824    9.60693804390164
C         5.14211946752964    5.09844596593391   12.53780299834478
H         5.88788693780763    4.98106278392525   11.77283465790258
C         4.98258515970316    6.14863924739865   13.46947879220978
C         5.65412387673774    7.34367532991793   13.75139055710090
H         6.52308538038518    7.63135869598692   13.18031588061787
C         5.17279055075767    8.12542233862619   14.77172778099815
H         5.66913248909993    9.05281775449894   15.01469485624210
C         4.04395133273800    7.75052948887115   15.51728206345492
H         3.70712580771946    8.40079031453367   16.31036599134073
C         3.36354576453848    6.58297731788733   15.26497058559920
H         2.49855525690734    6.29111323018138   15.83829337627228
C         3.84312065257436    5.78059341726672   14.23147815980227
C         6.81761465097155    1.95114896256165   12.51498122255245
H         6.64212062802609    2.03736790899735   13.57078997560659
C         8.02170616728193    1.68114788534749   11.82548733569883
C         9.35264729130306    1.45426137810514   12.19082902654142
H         9.64224944465660    1.45765616187610   13.22984854180713
C        10.26384631843191    1.22744995004204   11.18889361295859
H        11.29917717978695    1.04862394405275   11.43728941677052
C         9.88551541747712    1.22146279686345    9.83743321746559
H        10.64089131529741    1.04003460617124    9.08764895512283
C         8.58458810550072    1.43866310585426    9.44782472874563
H         8.28919065597347    1.43425184281295    8.41081387222039
C         7.65198993340263    1.66912632584876   10.45655390102657
C         4.76999749082908   -0.96217511950832   12.07358002260955
H         4.44299802856919   -1.97949946985792   11.89430771662420
H         4.91399854391829   -0.76491714427000   13.13078580161938
H         5.68021398142187   -0.76128720549843   11.51786140903082
C         2.07938560753920   -0.58635201757749   12.32963293068517
H         1.17920857252879   -0.05438463058298   12.03797897201229
H         2.25518691609092   -0.46262403190367   13.39323134381409
H         2.01653706926476   -1.62939077336689   12.04363950203515
C         1.90180858893432    2.36701163356771    9.05215983880353
H         1.80731884171542    2.84786500836683    8.08606396892287
H         1.03357861294681    2.53525265680625    9.67850473619421
H         2.09697409094057    1.30514530985722    8.93734739523241
C         2.74490366660727    4.80453408609640    9.92227332502253
H         3.56368039538120    5.43650796735693   10.25105673102385
H         1.92331803791208    4.84208226427777   10.63016082277607
H         2.42647207409773    5.09061697824322    8.92684611046520

