43
CSD_code = KAZDOE | q = 0 | S = 0 | Stoichiometry = C12H24Br3ReS3 | MND = 6
Re        4.65689353981752    7.03035040729189    6.07196643862165
Br        5.34145157481863    7.95448018065626    3.89600176616904
Br        6.47428805045312    5.34208480432691    6.13777919076295
Br        3.78319106029884    6.27929383071000    8.24222214156730
S         2.85677173122999    8.71833379372598    6.04184548215941
S         6.12507928722546    8.62640324488230    7.24123622213284
S         3.16442161206871    5.41782752628056    4.95677214752682
C         2.79451291554359    9.62625512639005    7.63621255501611
C         1.53692897071269    9.17136611924253    8.35985917588163
C         0.50682932848844    8.85112857824059    7.28415927032463
C         1.22008058811540    7.94405203279227    6.29996009598237
C         7.86076137345011    8.37794364752092    6.73077999916985
C         8.40997984003328    9.77476042944573    6.52193468895351
C         7.33932781361739   10.50839585349045    5.72300260439568
C         6.02715669839858   10.28679842143131    6.45902708325072
C         2.35025598792705    6.17918155110248    3.49606567785242
C         2.98708038423395    5.56271890236015    2.26048381033803
C         3.36152568952400    4.13442056312532    2.63760348396356
C         4.13700496600409    4.25867045702317    3.93343701258141
H         2.75984269099392   10.68462978252935    7.37579345981373
H         3.69934344921279    9.41606784004826    8.20333877159906
H         1.18830639536206    9.94764878618656    9.04044415263176
H         1.75262788504305    8.27100208909420    8.93710180571593
H         0.18356605396630    9.76744355760900    6.78419438599860
H        -0.36820166362207    8.35218485501389    7.69951779626585
H         1.37204429041399    6.94672561157446    6.71407236996653
H         0.72394832881069    7.87824218684061    5.33419933382951
H         7.87273769262119    7.80515111350985    5.80425488697081
H         8.35674131408447    7.81201751697740    7.51551987859503
H         9.35814964017576    9.73569473245454    5.98676919503926
H         8.56984358650929   10.26886310412621    7.48293170487865
H         7.27541124332296   10.08135955842147    4.72092222130548
H         7.55147956996694   11.57353719880485    5.63345500688843
H         5.89438870598372   10.99423451187401    7.27813938355124
H         5.16206807736980   10.32747199382418    5.79961943855664
H         2.47027198360451    7.26017821636610    3.53447801321040
H         1.29355400826124    5.92325240672515    3.57977008280559
H         3.88770678900898    6.11902350900726    1.99545780480297
H         2.29700311160612    5.59774284404537    1.41772155047449
H         3.97380686811670    3.66088507431270    1.87088390172822
H         2.46125771020029    3.53428044735067    2.78766090560717
H         4.23478967631908    3.33038165180010    4.49092438142874
H         5.12347118070776    4.68811594146202    3.76348072168263

