49
CSD_code = KAZLAA | q = 0 | S = 0 | Stoichiometry = C18H23Cl2N5Zn | MND = 4
Zn        2.56526926458400    1.82708456218961   17.56354912738672
Cl        0.78389117038018    3.02392978805666   16.94591153978210
Cl        2.65739330879843   -0.26862361748486   18.18243034931204
N         3.66024596927039    1.99227137373766   15.75305613885697
N         4.65096739551185    2.85611263319059   15.47203953056123
C         3.16782795509285    1.57079340524644   14.59504719684299
C         2.04586120516299    0.60782305429352   14.51841499437510
H         2.17830616371648   -0.18602489411877   15.25073647357252
H         1.97910137255112    0.18053726953632   13.52197014544614
H         1.11088843772812    1.12014762183458   14.74599717809386
C         3.86002802650005    2.19021401246275   13.54438918673189
H         3.69141515130897    2.05366913327861   12.49635569089421
C         4.79484694953724    3.01067433055153   14.13725139417801
C         5.80545733904310    3.92129732226786   13.54565535187877
H         5.70795937826026    4.92296342269579   13.96194489483832
H         5.66802753120002    3.96856196332982   12.46944377451213
H         6.81557784798243    3.56431716551833   13.74975822117911
N         3.43514899837930    3.18815531868023   18.95995534911809
N         3.58350624912384    4.49559353191107   18.66688237067671
C         3.54183064644056    3.06458754880050   20.27842101878419
C         3.40909857013152    1.76710792468038   20.98209637592118
H         2.38572846461504    1.64490283510009   21.33653630560003
H         4.07364854017289    1.73545520568659   21.84209774739417
H         3.62980863081942    0.93989829530596   20.31250899112848
C         3.77856270853073    4.32530657977526   20.84165263332725
H         3.90643603449785    4.55096250652876   21.88007112428524
C         3.80016762700486    5.21565831909139   19.78915734869927
C         3.98811772380001    6.68773631783099   19.79913707647840
H         4.87887828816996    6.97611347018032   19.24227869236994
H         4.09319560924487    7.02884775982583   20.82530651179118
H         3.12765459331326    7.18707971759078   19.35389228399323
C         5.40201141926581    3.50784320437501   16.50966453759087
H         6.44819862957419    3.56055017757871   16.19660556319858
H         5.31826478333917    2.87813145900707   17.40754384223401
C         3.60162718223268    4.95582054838975   17.29556764322700
H         2.88119435499535    4.35288561718839   16.73444233776633
H         3.27756225294313    5.99636805192691   17.28018208062980
N         4.91254758636612    4.85368766562354   16.70285462657967
C         5.83366773995967    5.88852427644940   16.94388981747396
C         5.50050058682356    7.18520743856319   16.54914041544756
H         4.54723279844706    7.36836836528171   16.07643998834937
C         6.38547970991278    8.22715315092279   16.74476837433034
H         6.11165104261765    9.22448155027928   16.43516589633823
C         7.62260852088264    7.99565540578784   17.32510829181694
H         8.31438276054834    8.81004883140822   17.47376660570761
C         7.96306905161258    6.71196749355411   17.71227274330086
H         8.92201142487490    6.52177593421682   18.17062009699687
C         7.07720182053847    5.66397363528394   17.53054217749566
H         7.35144118418826    4.67520331659760   17.86587994351251

