23
CSD_code = KAZLUU | q = 0 | S = 0 | Stoichiometry = C8H8Br2N2S2Zn | MND = 4
Zn        2.82910478654299    1.70357340760708    9.23302253572469
Br        2.36901400358019    2.73266680452175    7.17583793668950
Br        4.57402625784490    1.02423517843030   10.64219252484349
S        -0.22145899640105    3.75472907412149   12.12799627633759
S        -0.12191791893175   -1.92539237280415    9.18542342888995
N         1.35888301396598    2.53098438378298   10.56431831781370
N         1.40793701009055    0.09498215944011    9.31671644441652
C         0.30683790837731    1.68333716707905   10.76182483259302
C        -0.65495696439257    2.18509051357694   11.59007657184804
H        -1.57008584358756    1.72886288718635   11.90523189018218
C         1.24094052287462    3.65102072469984   11.20285423021754
C         2.23576300187974    4.74195438299593   11.15524870033362
H         3.22008216598689    4.35983583445913   11.43032144065721
H         1.96005497548786    5.54629794508458   11.83108056319864
H         2.30461915062258    5.13606289068160   10.13960051726117
C         0.33004434015374    0.39823008263703   10.09791822347455
C        -0.60987950248749   -0.59029737699854   10.14492661491975
H        -1.53830073876350   -0.60544693362809   10.67668436990665
C         1.33060475367538   -1.07568678525402    8.76926645441894
C         2.36162048685318   -1.64333299924783    7.87663922898967
H         3.32618140725990   -1.66037719458251    8.38662937736071
H         2.46717053334188   -1.01805883627185    6.98820223463247
H         2.09761564602532   -2.65227093751566    7.57338728529346

