57
CSD_code = KEDFUV | q = 0 | S = 0 | Stoichiometry = C22H28I2N4Ni | MND = 4
Ni        2.03891107435246    2.60599997830068    4.17348394571977
I         0.94014641524288    0.39544035815090    3.91002703726166
N         1.06910135210038    2.82379096074870    6.86114592537007
N        -0.39775301960174    3.58118420449111    5.44666074921019
C         0.82928533029700    3.03380455478991    5.55166010550110
C        -0.00333936065016    3.24633566813135    7.61145144268303
C        -0.24427325859821    3.24872427503903    8.97548423946047
H         0.48457744079201    2.87715673352224    9.67835033284842
C        -1.46149827905856    3.75063963008833    9.39569807988278
H        -1.68813200144863    3.77131297952331   10.45058897351229
C        -2.40601098347029    4.23027266663962    8.49016783502597
H        -3.34448275663113    4.61038058578375    8.86365072144606
C        -2.17157190413603    4.23243113264613    7.12798912543708
H        -2.90902304632031    4.60399966911995    6.43422392031293
C        -0.95200663429352    3.73535039635280    6.69760123320851
C         2.27222543336488    2.23311214455670    7.37898190101139
H         2.02997354246196    1.40902529113886    8.05171844467684
H         2.87075168695086    2.97662769112442    7.91098687016138
H         2.85376707643907    1.84159284826111    6.53584612034316
C        -1.02201265635253    3.96212410134721    4.20480531686429
H        -2.06729149916001    3.63799581913209    4.22271816170276
H        -0.51156173669668    3.42010727234734    3.39718143704826
C        -0.93183707808453    5.46879941894130    3.95738467516344
H         0.11770894090190    5.76885927979445    3.94446347229431
H        -1.41688858558845    5.99856845906074    4.78005389122612
C        -1.58949814925230    5.84661962653424    2.63778919370431
H        -1.10261834540218    5.34056833065295    1.80648726766928
H        -1.51542082682131    6.91839062021466    2.47504427670299
H        -2.64174236255917    5.56901179310907    2.63778524707322
I         3.13870141215732    4.81625970272578    4.43629856635810
N         3.00889820984868    2.38842010594679    1.48585574614725
N         4.47572724406204    1.63103561784300    2.90035285500546
C         3.24869033463597    2.17844942865423    2.79536433810468
C         4.08135592969319    1.96588147439629    0.73555677413671
C         4.32229288124245    1.96344753247561   -0.62848063611570
H         3.59342528379855    2.33496702474697   -1.33135362412174
C         5.53951938582937    1.46152723168502   -1.04868920712949
H         5.76615431232500    1.44082493696847   -2.10357983547241
C         6.48403050121958    0.98192071289705   -0.14314547915025
H         7.42251421187216    0.60182528817261   -0.51661671984059
C         6.24957649087520    0.97978218744950    1.21903282051694
H         6.98703740243373    0.60823894955246    1.91279880013052
C         5.03000604863291    1.47687063292572    1.64942027715811
C         1.80577133095003    2.97906501055995    0.96800093121885
H         2.04797415421157    3.80314684029224    0.29530106136848
H         1.20728437284062    2.23559638951445    0.43597624047360
H         1.22421043142557    3.37054091102707    1.81108660016848
C         5.09999071634575    1.25007572584074    4.14219914078825
H         6.14526712032064    1.57420438285366    4.12428112578502
H         4.58953409906421    1.79209341415370    4.94982361510416
C         5.00984580692034   -0.25659821027361    4.38961929560545
H         3.96030878253284   -0.55667068673543    4.40255703986471
H         5.49489358193805   -0.78638191894782    3.56695838605821
C         5.66750869095326   -0.63439062588365    5.70922030791147
H         5.18059429143571   -0.12835695430768    6.54050876009921
H         5.59346149750523   -1.70615839317674    5.87197453576613
H         6.71973966615155   -0.35674320089798    5.70924834153956

