70
CSD_code = KEDJOT | q = 0 | S = 0 | Stoichiometry = C34H28BrCuN2P2S2 | MND = 4
Br        9.54599654587011   -2.79792215253878   12.16393354024645
Cu        8.45259287187164   -0.81347210840859   11.71523171511324
S         6.98295157016923   -1.22403224831620    9.69144678007376
S        11.87876738033769   -2.76172144339455    8.54055572067699
P         9.71143826590264    0.78907181676093   10.40517999106638
P         7.89038160116972    1.03255996252524   12.85707502724052
N         9.34347115768576   -2.15456458404925    8.94323048032266
H         9.55701514265229   -2.29244494469826    9.94999555932038
N         9.99460010287035   -2.49083815299315    6.74155650166978
H        10.73650220589141   -2.72106708375203    6.09532630614431
C         8.08464465622702   -1.77431812877158    8.58055589237082
C        10.34181134199053   -2.46618856043748    8.07066162282100
C         8.73896391006006   -2.20156627424097    6.30908794914756
H         8.56866012544960   -2.26604706358600    5.24585480920169
C         7.77604072049054   -1.83969120995457    7.18537602927553
H         6.77980061834981   -1.58775025711227    6.86998626316005
C         8.81310153881001    2.35850271270717   10.62520763294689
C         7.93764006069792    2.45005239072166   11.71683856031385
C         7.18497675403973    3.60444721657491   11.90454060928891
H         6.49569747314064    3.66732618877460   12.73578454003974
C         7.31025031886407    4.66564522524120   11.02707956984524
H         6.72277309900079    5.55939707262696   11.17796746445996
C         8.19315988763376    4.58605938551423    9.96071071120827
H         8.30057394543512    5.42109818107384    9.28402890348528
C         8.93755703717162    3.43888522896429    9.75710736315838
H         9.62214052440933    3.38090152555086    8.92223102706327
C        10.25721963455145    0.89758833486452    8.67072770043858
C         9.26560854999391    1.04787123837600    7.69971267867578
H         8.24061267222594    1.21461066693132    8.00752182169031
C         9.58999290314778    0.99628319740825    6.35880108602730
H         8.81842539854224    1.12720369895991    5.61352088350453
C        10.90208452517140    0.76883033180172    5.97196467304788
H        11.15521449845492    0.72461978025270    4.92265443599304
C        11.88637722570512    0.59849648139375    6.93165157695349
H        12.90790436204399    0.41474336390294    6.63378704277332
C        11.56909210235170    0.65483046503312    8.27682547081440
H        12.33959061901124    0.51395321580942    9.02079138089756
C        11.24814830187992    1.08376078911231   11.33339828655754
C        11.61954083949666    2.32711461722335   11.83204947178361
H        11.00046794284499    3.19524860121762   11.64996546278020
C        12.78309634934229    2.44871911780591   12.56861507221724
H        13.06909072222668    3.41516313906038   12.95811173115839
C        13.57762561057153    1.33973604660129   12.80976686618009
H        14.48272487968588    1.44331375964942   13.38993425563303
C        13.21081185536187    0.10016514877302   12.31244218822984
H        13.82355315544316   -0.76830368695901   12.50002692667580
C        12.04589188904901   -0.03173895470455   11.58087227477694
H        11.75300987776460   -1.00389868294853   11.20669039023711
C         6.39536239675075    1.34892277677698   13.84011250465058
C         6.40363868797435    1.52962825994536   15.21838635344216
H         7.34207945044476    1.55860676853131   15.75463330621155
C         5.20646650948305    1.67746617308043   15.89667085404038
H         5.21339571032234    1.82529039046255   16.96674414075145
C         4.00370682517773    1.63222431170397   15.21142600165813
H         3.07331568773788    1.74764627356874   15.74731676845359
C         3.99118982223215    1.42607822638727   13.83995353199027
H         3.05261327688321    1.37643144313266   13.30772091699066
C         5.18121018163260    1.27307636441439   13.15701354333562
H         5.18677602443422    1.09617487463907   12.08792808866132
C         9.25502998947545    1.47344456177350   13.98052663541756
C         9.46769883896787    2.78359583309907   14.39964004272642
H         8.80310474937991    3.57112765114450   14.07024531125075
C        10.53003146994641    3.07245259205079   15.23436680257816
H        10.69444340577269    4.08958406646234   15.55997251199705
C        11.38521839206477    2.06347026237171   15.65001567842703
H        12.21753311302983    2.29738721863228   16.29718965168455
C        11.17489463759722    0.75925290211570   15.23669772170255
H        11.83898482419217   -0.02883279178111   15.55719224141863
C        10.11149579498003    0.46303308234163   14.40368548094513
H         9.94641744044364   -0.55459460517890   14.07677966495246

