33
CSD_code = KEFYEZ | q = 0 | S = 0 | Stoichiometry = C10H16Cl2N4Pd | MND = 4
Pd       -0.46751030367050    4.94887041550668   14.31837459527180
Cl        0.91110775611407    6.77773588496127   14.35998343966700
Cl       -1.95534157366527    3.24328755036598   13.95900660230729
N         0.96954197566897    3.96892971066684   13.40682357815248
N         1.44348172208007    4.30346851614741   12.20292143693822
N        -1.91257357708304    5.93341793044359   15.21228027283722
N        -3.04434963774185    6.29146889374505   14.59801297617175
C         2.43574343021147    3.47028718888953   11.82243167997932
C         2.58050892346651    2.55181727546294   12.84086278514282
C         1.64034903286013    2.90724764168275   13.82192107751712
C         3.14517166242254    3.62012323528886   10.52821138561651
C         1.34534022081443    2.29568160929196   15.14563653217234
C        -3.87336709142481    6.93832170866360   15.44505583355274
C        -3.21515212480621    7.00339224199267   16.65519527578621
C        -1.98540646077081    6.35210406058005   16.46491838952821
C        -5.20455322469175    7.43980021056670   15.02407238128257
C        -0.87048560048631    6.09492035252677   17.41554101591849
H         1.12011843790563    5.14560875915139   11.74109947713968
H        -3.22954495233873    5.98618475452968   13.64942858023086
H         3.27209197224715    1.73618967511880   12.88178956736356
H         3.59364981409154    4.60974989114155   10.45114165871131
H         3.92814303732775    2.87248674612100   10.44669177849111
H         2.45346851841428    3.49443827667291    9.69574782461539
H         0.71373657291732    2.98798583287598   15.72467290155516
H         0.80258048332729    1.35949458906756   15.01775226776715
H         2.26458638736958    2.09478913925368   15.69155477997607
H        -3.56931457736667    7.45204990848891   17.55990735736960
H        -5.80584803049021    6.62915212697068   14.61480482438254
H        -5.72479123305337    7.86827952602955   15.87513781426327
H        -5.09965009564203    8.20631484239732   14.25674844132386
H        -0.19500836252697    5.34385872704999   16.97725216229561
H        -0.30225992820157    7.00850583775151   17.58842303577981
H        -1.25116317327438    5.73433694059347   18.36859827089691

