31
CSD_code = KENTOO | q = 0 | S = 0 | Stoichiometry = C6H18Cl2N2O2Pd | MND = 4
Pd        5.04279871774279    0.00015150690517    8.26754754543953
Cl        2.99855848849559    0.98105767049365    8.68191984097476
O         5.92944754687461    1.83346668091037   10.21426728958276
N         4.97200849294921   -0.64026540730595   10.24623967281494
H         4.18603616504605   -0.03765018264590   10.51887705075207
H         4.67836947850638   -1.61562750397801   10.32729146373162
C         6.11688499151266   -0.37335281465654   11.12503842914103
H         6.80338437905024   -1.22283213544964   11.09824826891702
H         5.77118196009388   -0.22248515908242   12.15526176749483
C         6.87648909757133    0.87178103508447   10.64213111650274
H         7.49914640200081    1.27632192437048   11.45413493729452
H         7.52302489813765    0.58816506678943    9.79846340756868
C         6.47818263577911    2.81875654367675    9.36995354449044
H         5.64865693577844    3.46029148233067    9.07348694256255
H         6.93945403950738    2.35950084586775    8.47949114320100
H         7.23448338316783    3.41515056145003    9.89650078217077
Cl        7.08673626456202   -0.98117864759959    7.85325721133206
O         4.15699847295117   -1.83339105917877    6.32008643878135
N         5.11340456606502    0.64059981539564    6.28886436950449
H         5.89932389964669    0.03793492747171    6.01617396872423
H         5.40703907718967    1.61595962425223    6.20770823568447
C         3.96843567286877    0.37363993582973    5.41020758534957
H         3.28166261931779    1.22288232489074    5.43741541610254
H         4.31399483672210    0.22320559189662    4.37988053290654
C         3.20944130852082   -0.87191681584266    5.89293169551288
H         2.58666052727057   -1.27640112602355    5.08100410313815
H         2.56310126391433   -0.58882066785783    6.73692582050513
C         3.60913359913634   -2.81900740553084    7.16456546001590
H         4.43906338801388   -3.46027796691319    7.46041553829893
H         3.14826361055283   -2.36005722959043    8.05538700638697
H         2.85273328105323   -3.41560141596214    6.63842341511758

