45
CSD_code = KEPMIZ | q = 0 | S = 0 | Stoichiometry = C21H21AuClP | MND = 2
Au        5.90849129889095    3.01867217895338    5.66508725306693
Cl        5.88116012554008    3.00455523690362    7.93870915676326
P         5.95356150737865    3.03752677430443    3.40836375585674
C         7.19319733518484    4.15492158336584    2.68560864960949
C         7.29569609442023    5.47125059260564    3.15811051777300
C         6.36440076643318    6.00172765096850    4.19954500512429
C         8.28891384457154    6.28675833989669    2.63179127602548
C         9.16227963577264    5.82525623607662    1.66292367104965
C         9.05094021458335    4.52715053734253    1.19502949496238
C         8.07310947752952    3.69588162794702    1.70741635026210
C         6.31830772126882    1.43086352737306    2.63789795419078
C         7.39476749455720    0.66623361118839    3.11040997920591
C         8.29233754040905    1.16900849838857    4.19426035151928
C         7.61883715823896   -0.58115624847363    2.54273786823523
C         6.80877735988165   -1.06945564528872    1.53283827422736
C         5.75236250151935   -0.30660303472848    1.06550326439988
C         5.50691801420765    0.93567748750098    1.61894033280207
C         4.39633340492955    3.55031922253701    2.62116120885167
C         3.18683151160505    2.98419983853351    3.04902064955690
C         3.15226551733268    1.91929730452241    4.09687127957693
C         2.00639536696187    3.43279534929763    2.47125237876517
C         2.00908835083104    4.41289933105864    1.49452960189786
C         3.20705827913501    4.96245721986223    1.07114582164038
C         4.39400385372928    4.53511406741183    1.63530119892527
H         5.34016957810730    5.67731502078480    4.01251339114790
H         6.38817874709065    7.08884437578483    4.22018789404919
H         6.65425907692846    5.63654168970510    5.18780250384649
H         8.37673630920569    7.30227390895019    2.99026978768037
H         9.92634649384611    6.47965529078690    1.27106144151201
H         9.72288299422076    4.16072494643422    0.43364155730228
H         7.98630721301512    2.68222574645327    1.34178554569806
H         8.54089976193716    2.21994107953511    4.04127987085637
H         9.21444794233421    0.59332602582020    4.22950491700987
H         7.79892227851659    1.08158183224304    5.16547857078948
H         8.44514698468103   -1.17829807580290    2.90067689269211
H         7.00472849110144   -2.04271216760995    1.10858672699829
H         5.11990837361056   -0.67607596361478    0.27240896531795
H         4.68182155745848    1.53113068267390    1.25373427871550
H         3.94148717229631    1.18417839206272    3.93477832305322
H         2.19250839394376    1.40770595844343    4.09520544188979
H         3.30325376535901    2.35686746236003    5.08678267962146
H         1.06904242395255    3.00366683851637    2.79485570084363
H         1.07714396759000    4.74431984282488    1.06179650267412
H         3.21946686871419    5.72203505096470    0.30408382750882
H         5.32950723117920    4.96430077513754    1.30460988650596

