27
CSD_code = KEVTUB | q = 0 | S = 0 | Stoichiometry = C12H8Cl2N2O2W | MND = 6
W         2.47606755156000    2.19122578863295   10.55658680342142
Cl        1.28352022645137    1.95566063027689    8.54280221443834
Cl        2.54371151147373    1.78255227516096   12.86957680931311
O         3.89516186058018    1.40701571289941   10.11180557907917
O         2.61550026267380    3.86652203791229   10.58119350562438
N         1.45134817122260    0.09649507107544   10.76705952981002
N         0.24122500728637    2.42323720293520   11.21400463152608
C         2.08185529200491   -1.03921126027319   10.53905539713524
H         3.12697227732329   -0.94837536363827   10.26206254529630
C         1.45148219340114   -2.28392765855280   10.64405121010679
H         2.01501063067686   -3.18158579650640   10.44607943654974
C         0.12387823462944   -2.34381779681271   10.99689533404210
H        -0.38948018105929   -3.29011712975921   11.08451471419830
C        -0.57298200030538   -1.14860977572152   11.24691802411555
C         0.14955214053940    0.05453583633515   11.11570312543975
C        -1.94780500678402   -1.08921961264281   11.61919548084627
H        -2.48873458626378   -2.01883076361898   11.71375035107088
C        -2.56397147721049    0.09658157132129   11.84923961278251
H        -3.60568055933327    0.13082960353555   12.13099349428618
C        -0.50174772553194    1.30727161404623   11.35733309337717
C        -1.86170296986405    1.33114950340598   11.72713758106285
C        -2.44115745929520    2.59205433279950   11.95298555460340
H        -3.48076261376375    2.65906711134368   12.23833862018338
C        -1.66910228812435    3.72022757078862   11.80542248508367
H        -2.08223792594132    4.70214820954970   11.97183499689535
C        -0.32656350414916    3.59337118331669   11.43231942059240
H         0.31584293780354    4.45814990219069   11.30304044911989

