32
CSD_code = KEXKUU | q = 0 | S = 0 | Stoichiometry = C12H9ClN6S3Ti | MND = 7
Ti        5.09960071943663    6.64469248026551    3.17177672715226
Cl        4.24669578400314    6.63219889492833    5.19523489091609
S         6.96003902046127    8.28256719715535    3.45067747411015
S         5.94300054141892    6.04088261488133    0.85785013726035
S         4.03849005205361    8.80561563500317    2.50683159142393
N         6.88232883261177    5.80469713804017    4.04935221922658
N         8.85789626395692    6.94102403432814    4.74129649472203
N         4.95020324349095    4.65098909790323    2.76949809870040
N         5.58712547793305    3.39258334684158    0.86433816766379
N         3.10659806450816    6.43246944476662    2.38420202790070
N         1.60857198711689    8.14023619147282    1.66561031632999
C         7.66306300893484    6.91609680691416    4.15014883903635
C         7.33283320085196    4.69060085709660    4.61834729953282
H         6.70131835947055    3.80874663841453    4.56042567272142
C         8.55831528503913    4.64460681232225    5.25657498240192
H         8.91980794541169    3.73927400351049    5.71212118475158
C         9.29842046860863    5.83032108036337    5.27633482820849
H        10.27324460311479    5.88365939875587    5.74284670892896
C         5.47055385235966    4.55269473486156    1.51330311455543
C         4.52632085890519    3.55089061690463    3.37856508690777
H         4.10764203185940    3.68116692547706    4.37443047718866
C         4.61800743222562    2.31608438122927    2.75651007123417
H         4.27827404420270    1.41423457574560    3.23586402345757
C         5.17402196665856    2.30639028406725    1.47311118977394
H         5.28669919033929    1.38602993819041    0.91518983685819
C         2.78622142617330    7.73442727788332    2.14177125416069
C         2.16272485348898    5.52232459574304    2.15942743911602
H         2.40428351837756    4.48440449219716    2.37011638825579
C         0.91573930317295    5.87153631294780    1.67553778782472
H         0.15673871612253    5.13007622809424    1.49565544784759
C         0.69643504873852    7.23065736635142    1.43262609934511
H        -0.24551510105163    7.59322059733908    1.04262412248738

