54
CSD_code = KEZVIU | q = 0 | S = 0 | Stoichiometry = C13H35BrOP3Rh | MND = 6
Rh        0.33199032449200    5.54651559507265    1.31390482333814
Br        2.01199837677529    5.99457736449790    3.18999162562960
P        -1.07094336857055    5.01323382899957    3.07385339343091
C        -1.50322569010069    6.48016459873371    4.07190509711193
C        -2.69531544438272    4.15886446645145    2.85888779339454
C        -0.42037001757606    3.94423237200906    4.42379510769588
P         1.08290257729835    3.40828275632103    0.95091971016148
C        -0.14996185540539    2.05256795137260    1.11100703584666
C         2.46604022272338    2.73093450986051    1.94281279199968
C         1.65051826914060    3.00234047498478   -0.75086132133461
P         1.93495094337208    6.58592037255169    0.00888265154995
C         3.69600145201183    6.09127370562935    0.21447596236697
C         1.90409697783245    6.58090239622640   -1.83823707940378
C         2.09655195133687    8.35930724738995    0.41453142975953
O        -0.61632450432045    7.34052767955310    1.30990092537041
C        -1.53203127025690    7.09105417136227    0.28308171272807
C        -1.17468259566050    5.65171392730966   -0.11527662189982
C        -1.36238651844002    8.09532209448012   -0.87298714374118
C        -2.98358742351365    7.23345526830084    0.77969929723052
H        -1.88556745228764    7.27005962110751    3.43084460019808
H        -0.58599192262219    6.83951230163569    4.53888739666583
H        -2.23181319185149    6.21340954638793    4.83772451734004
H        -3.27646231267880    4.58912624304938    2.04894452149431
H        -3.26478139163240    4.23302578877454    3.78455145540566
H        -2.52034628668229    3.10889961989536    2.63259798204719
H         0.46156351038604    4.40581127562705    4.86229831535194
H        -0.15050252443503    2.95767526601554    4.05270130273098
H        -1.19200227669894    3.83910050689445    5.18594529082936
H        -0.49064657940218    1.96809556664459    2.14011197892756
H         0.29150130632189    1.10519776510964    0.80249345984677
H        -1.00376968051466    2.28002899013250    0.47396775061305
H         3.34383550941321    3.36112074891141    1.80852376364250
H         2.68895214256862    1.70706332660228    1.64403551523932
H         2.19961059704784    2.76511780689915    2.99811418494015
H         2.54382347962140    3.57052561399502   -0.99866636822903
H         0.86007029476997    3.26254277251729   -1.45374403696016
H         1.87113482735859    1.93809185828691   -0.82979737641084
H         3.98997419899256    6.20619828523526    1.25539767831076
H         4.31259850673305    6.73798673700595   -0.40919793986744
H         3.85347574000377    5.05651937168585   -0.08280439828317
H         0.92698508886694    6.85011158739222   -2.22781975598266
H         2.15208811288992    5.58430548357162   -2.19874756455166
H         2.64392470465168    7.28857941864810   -2.21092601985200
H         1.11705448194234    8.83090942108078    0.41710197035403
H         2.76316485092697    8.85035687028041   -0.29468792392405
H         2.50720472250611    8.42857995430159    1.42211258744909
H        -2.00229694620722    4.95482499761259    0.03882946080274
H        -0.83027738601532    5.57515067526613   -1.14960671499562
H        -2.02682949051789    7.83572414663798   -1.69525168251097
H        -0.33680748613824    8.10357620864029   -1.22973004312205
H        -1.60539852321402    9.09721475165720   -0.52400104343465
H        -3.67849992501327    6.96367048476151   -0.01352097917196
H        -3.16788133526307    8.26434518990392    1.07637886937277
H        -3.16090977058199    6.59805101672624    1.64215205450028

