34
CSD_code = KEZZUN | q = 0 | S = 0 | Stoichiometry = C15H11Cl3N3OY | MND = 7
Y         2.86571922058992    3.71605603241734    2.40452899714906
Cl        0.81544216475521    2.33617830095918    2.18409233864909
Cl        4.76755132688635    4.87563495629512    3.47293940793462
Cl        1.61315043247585    6.01641972568111    1.66312680403302
O         2.59360492717453    4.90738509654308    0.93351024405912
N         4.25370439402265    2.23477956646076    1.14123647805780
N         3.46594022908188    1.83733579819618    3.67327582885205
N         2.05010161323061    3.93823183122349    4.66465573516732
C         5.53813912722885    0.22293429992262    1.13977218531666
H         5.83798590501266   -0.68524634893369    1.63772696274770
C         4.60877551607443    1.07966271530861    1.72600012357148
C         6.09441629409035    0.56648745635984   -0.08104015594864
H         6.81981379367954   -0.08124946322015   -0.55037509753703
C         3.84704765247971   -0.50721485038600    3.53827891305323
H         4.21689191198579   -1.35879719846298    2.99083005359096
C         2.34412972760126    2.91630370235031    5.48373379735312
C         2.70466369061913    0.42146769081869    5.42476970995805
H         2.17628382653121    0.29996168814368    6.35624403815748
C         3.96479289591906    0.78353856053740    3.02523542650319
C         3.19880706556526   -0.68117345410901    4.74982025758653
H         3.07070082818274   -1.67185301107991    5.15953149381673
C         5.70796507151747    1.75216042948156   -0.68453997797284
H         6.11532476097396    2.05309428067673   -1.63627841515427
C         1.57506046168071    5.06066189935915    5.19155450850891
H         1.34232664072120    5.85840799760111    4.49242042584857
C         1.70344283677117    4.19276094095529    7.40670128724205
H         1.58383819763259    4.29354815215477    8.47504171728003
C         4.78590851359556    2.55801699057060   -0.03161167397652
H         4.45540291314323    3.50021011908350   -0.45782407645946
C         2.85977906553416    1.68306408119323    4.84976190907032
C         1.37979003964288    5.23470650207484    6.55399513202611
H         0.99387406527280    6.16767974925550    6.93201011308585
C         2.18951048886072    3.01529317559359    6.86462404782628
H         2.46981440147354    2.19515258700059    7.50635146061317

