55
CSD_code = KIBLIS | q = 0 | S = 0 | Stoichiometry = C26H24Br2P2Pd | MND = 4
Pd        3.09765800332396   11.72817201648089    4.57333862434952
Br        1.86774869302559   10.42072368758207    2.97869448783958
P         2.20203151610076   10.49212747661233    6.22009267364665
C         3.37089576848379    9.11107062226047    6.41121547515504
C         4.47441230255565    9.04120782566543    5.56304321134925
H         4.61575344380077    9.78948391523574    4.76738369769464
C         5.39018121950660    8.01313682285582    5.70240299904047
H         6.24141868457102    7.95783313995630    5.04065638309830
C         5.20729426852749    7.05397005818650    6.68485475443435
H         5.91942958504126    6.24937351716495    6.79065379357868
C         4.10767521744870    7.11744397985194    7.52755394201527
H         3.96481724230532    6.36338615461654    8.28749070467321
C         3.18914321315956    8.14130535071169    7.39358737274893
H         2.32146183082372    8.18804183149159    8.03851725091008
C         0.57616326331588    9.70622982670446    6.31265774186204
C         0.38287313411647    8.52150524872797    5.60439751530047
H         1.20743795820993    8.08279010589758    5.05941502120948
C        -0.86244758853356    7.92388205601545    5.58830336569589
H        -1.00915692341375    7.00762492393673    5.03715276777489
C        -1.92090616184425    8.50563938821129    6.26765828395253
H        -2.89450155682459    8.03917113153049    6.25225273098973
C        -1.73594336659722    9.69363762945056    6.95572362810210
H        -2.56415483887367   10.15418583700461    7.47413887951171
C        -0.49397534615219   10.30175588802902    6.97304071022967
H        -0.36291485880832   11.23884968304150    7.49604123512168
C         2.41121737799147   11.39878256118062    7.82693083185444
H         1.63389410839211   12.16901583206236    7.88476243787601
H         2.28886516122418   10.71184785708198    8.66998912848056
P         3.99395489690780   12.96484108264583    6.22030378815296
C         2.82513305974015   14.34594807868808    6.41131950763527
C         1.72147105930854   14.41569528699465    5.56331645322993
H         1.57993688909996   13.66729994420453    4.76780036257035
C         0.80570649845972   15.44375269094007    5.70272997074799
H        -0.04567099363804   15.49892612195560    5.04116110066489
C         0.98877663138905   16.40306522311078    6.68500373805935
H         0.27664998582120   17.20766526752884    6.79082147143991
C         2.08855978506233   16.33971769451454    7.52750798129485
H         2.23157714569683   17.09389472233462    8.28729428451240
C         3.00706529661485   15.31583839726739    7.39352908733489
H         3.87486194376159   15.26917730920767    8.03831917432779
C         5.61984757666351   13.75073107530571    6.31271106183994
C         5.81317259978306   14.93530318765352    5.60421204683625
H         4.98864204231164   15.37390737470633    5.05907923429148
C         7.05847940081061   15.53297627912135    5.58812425819541
H         7.20520746054933   16.44910185730185    5.03675938413524
C         8.11686252150118   14.95143563117218    6.26778330598473
H         9.09047424413938   15.41785629488506    6.25232549605245
C         7.93185739260453   13.76358028732069    6.95609668548700
H         8.76002776637648   13.30320260644037    7.47472210210186
C         6.68992788536429   13.15539998490074    6.97335601649375
H         6.55875122305520   12.21848105531009    7.49665723559103
C         3.78469435313442   12.05799015878186    7.82700362822629
H         4.56204445464705   11.28777724190292    7.88480701101343
H         3.90705631992564   12.74497990263514    8.67001171488516
Br        4.32856121001586   13.03676087563240    2.97749425039544

