43
CSD_code = KISPAF | q = 0 | S = 0 | Stoichiometry = C14H22CoIO2P2S | MND = 6
Co       16.20356133320770    2.07012642302938   11.62031876036793
P        17.31596309472592    3.32391060202140   13.07181182343818
I        13.98261124943595    2.41768505063616   13.00810937454906
S        16.96278157358388    0.27409338724853   12.82619968142393
P        15.27193660498028    0.53334783438088   10.32891162095787
O        17.91812724462328    2.70485572392747    9.57563381827353
C        16.84949853165786    5.08982353765981   13.04462068277610
H        15.78192113769125    5.18751537095804   13.24376365461132
H        17.07272879238504    5.51413816669956   12.06545997200381
H        17.41060987650256    5.62599048890402   13.81098193146209
C        17.77565811235252    1.95745846508838   10.51257046046265
C        18.72773886307526    0.93254561200885   10.90888990910892
C        18.44884556801119    0.08139876189656   11.98868573474175
C        16.35130144473357   -0.55959301544791    9.33606749694873
H        16.97822342659121   -1.16354699203395    9.99188638684982
H        16.98663275885563    0.03710797230250    8.68249972318815
H        15.72217195559638   -1.21463754357592    8.73202536283220
C        19.13416935159113    3.44133284416464   12.90598369682805
H        19.51220605904429    4.14979097045200   13.64404057106188
H        19.39168909333916    3.78543591013931   11.90464003792945
H        19.58845383832734    2.46503192620862   13.07484267786685
C        19.37582502251897   -0.89891688434411   12.35240498265274
H        19.14983193337572   -1.54915338678667   13.18399023037172
C        20.55429456015777   -1.01818364383840   11.65240024416023
H        21.26990701949271   -1.77492624813590   11.93856095185789
C        17.14950006592167    2.93349147930814   14.84484165202440
H        17.49733569297130    1.91862603310927   15.03432128913591
H        16.10434013740890    3.00930104329330   15.14121493067725
H        17.74916153616046    3.64596517938805   15.41277433522188
C        14.17273099048962   -0.68133187801517   11.12806952564513
H        13.29683799116601   -0.17275875641727   11.52794897490964
H        14.69780325951719   -1.17298367110179   11.94646517777357
H        13.86786625135859   -1.41753456175199   10.38339939109137
O        15.14188102384648    4.32870153564440   10.14222434582129
C        19.93088311632926    0.79188530657621   10.20671216399450
H        20.12304893377899    1.45836993330260    9.37838811691091
C        20.83672539200594   -0.17390003524201   10.57758088835553
H        21.76596528649317   -0.28039203621016   10.03911266320812
C        14.18015831457802    1.21596826979683    9.03278423756714
H        13.73030042465800    0.40202486490447    8.46297226625009
H        14.75999550160649    1.85428240012003    8.36558753723374
H        13.39267380610065    1.80803793371244    9.50075793823629
C        15.57440382975478    3.44201562601495   10.71314477921556

