32
CSD_code = KITZAO | q = 0 | S = 0 | Stoichiometry = C14H13ClN2PtS | MND = 4
Pt        0.96238151686081    0.41390307330083    4.20964409997849
S        -0.07780573716338    1.68636317242858    6.12255099785135
Cl        0.66703576212683    2.04185368291547    2.74123832548510
N         1.25798165347806   -0.97351909045878    5.51962479887106
N         1.82845127400138   -2.07751295971006    5.18384314668443
C         0.31708583814076    0.37333645436401    7.28735504232706
C         2.77661108475937   -3.23454898518929    3.30183044756201
C         0.92503068852427   -0.81343563385396    6.85934927638819
C         2.84655580544554   -2.09497574813478    1.17441015962865
C         1.87910898213977   -0.95915048379268    3.07672213411217
C         2.16005209806999   -2.11118761425175    3.86956696750918
C         3.11047718566682   -3.21547024560525    1.96963566797977
C         1.19931476187509   -1.80543047222469    7.80759459282225
C        -0.01360224372453    0.55413482759294    8.61838492467538
C         2.23205982097418   -0.98003954179513    1.73986153360861
C         0.87207335874257   -1.61418557893823    9.13327057838902
C         1.42564844989154    2.70520786125459    6.32952125988633
C         0.26637995298153   -0.43527592560308    9.54520104672619
C         3.22201135370343   -2.11034152287552   -0.27325959611150
H         2.97586432963085   -4.09396921268279    3.92282059239943
H         3.58525601520480   -4.07624885550780    1.52074844450592
H         1.66888806151127   -2.71345312683962    7.46386628726165
H        -0.49470782501717    1.47219169367675    8.92044143192354
H         2.02987358643658   -0.11772722420522    1.12026709432719
H         1.08733495839504   -2.38872031583263    9.85342313287748
H         1.48354826956371    3.04364126969225    7.36069120612258
H         2.31547450947584    2.13476805183399    6.05942340661968
H         1.31064820064131    3.55196950837466    5.65856960841046
H         0.00800127489514   -0.28873772595684   10.58240406389892
H         3.02649544441696   -1.14804064796591   -0.73795104308008
H         4.27833528898021   -2.35001583821471   -0.38871154610513
H         2.65083627937164   -2.87428284579720   -0.80053808353597

