47
CSD_code = KIYGOP | q = 0 | S = 0 | Stoichiometry = C14H22Cl2O8Ti | MND = 6
Ti       11.19188203274630    2.09692127421551    9.42069948107089
Cl       12.61721989062033    0.62319925835623   10.20306983601147
O        10.05434216213430    3.58665889359199    8.75788695546803
O         9.10660490584782    5.60762101129314    8.86442373860282
O        10.27150151589556    2.27944873398950   10.98455049025356
O         9.76811391361949    3.36651552808413   12.88194108015217
C         9.44826831939569    4.47481653495200   10.86213639760048
H         9.03886009437568    5.31687286659169   11.38967904724218
C         9.55626149523309    4.50610259226903    9.46511543594437
C        10.25835347370879    2.21733299828057   13.58884653021608
H         9.85455247759789    1.30865066473159   13.12879439943287
H         9.85732270822669    2.33642479040840   14.59745099829976
C         9.85286152287388    3.33377733764174   11.55470008199693
C         9.21988724782672    5.64526976389279    7.43729024301378
H         8.66567202992063    4.79804466525853    7.01662815918259
H        10.27684332180234    5.53674679922738    7.16153124922924
C         8.65476857250383    6.96861546251302    6.95695847912771
H         8.72174050235606    7.02201018486422    5.87440170639494
H         9.21331980925408    7.79373886137892    7.38968539111474
H         7.61400202160907    7.05955848467487    7.25460866558033
C        11.78104407719365    2.17083158451550   13.60063411422394
H        12.10898534669582    1.33573154779970   14.21270264674439
H        12.18028786603476    3.09447052429540   14.01480006088929
H        12.16767471687879    2.02920690964081   12.58942595393769
Cl        9.76654142816002    0.62320134526262    8.63833167180056
O        12.32942355908632    3.58665840924077   10.08351254816720
O        13.27716118719177    5.60762010040792    9.97697675281207
O        12.11226159710371    2.27944993426381    7.85684780709211
O        12.61565156520571    3.36651667728990    5.95945817811885
C        12.93549602444911    4.47481707097398    7.97926319995036
H        13.34490452409024    5.31687325125271    7.45172061385546
C        12.82750573957585    4.50610138985992    9.37628466348833
C        12.12541325869089    2.21733388015194    5.25255236821345
H        12.52921504042607    1.30865161367199    5.71260400962266
H        12.52644369130694    2.33642661367453    4.24394785891930
C        12.53090113059532    3.33377900579720    7.28669899578674
C        13.16387967015604    5.64526748321317   11.40411042282469
H        13.71809600570995    4.79804225332298   11.82477099909103
H        12.10692383719931    5.53674338208609   11.67987038828411
C        13.72899827163479    6.96861274240898   11.88444323454669
H        13.66202824768538    7.02200586849400   12.96700022900886
H        13.17044607400629    7.79373645054533   11.45171842519790
H        14.76976441723897    7.05955657537930   11.58679150972461
C        10.60272265867834    2.17083136635866    5.24076530444177
H        10.27478203909943    1.33573120623045    4.62869665211734
H        10.20347788690507    3.09447002513051    4.82659959275389
H        10.21609212145153    2.02920608251667    6.25197343244875

