40
CSD_code = KOBQUP | q = 0 | S = 0 | Stoichiometry = C13H20BrN2O3Re | MND = 6
Re        0.41673442138638    6.57851595292276    2.43869152466371
Br       -1.60163180422189    5.48721164651742    1.28600956606380
O        -1.10390116511480    9.27623272055553    2.40599255346106
N         1.30704512760787    6.60343733635748    0.42168949484915
C        -0.44733740573514    6.35102810298966    4.17376530460800
O        -1.01258913929830    6.25517130485507    5.16696436571146
C         1.73560171615324    5.44265469371776    0.08239509482812
H         2.10598736899806    5.20862192056576   -0.90944766358042
C        -0.50370777651164    8.29920250958049    2.39379111891550
N         1.35497320354365    4.59431027056691    2.24523004343978
C         1.94447069370173    8.92105584484295    0.16356021150115
H         1.39733253559951    9.18115854807393    1.06731737126699
H         1.92773917190575    9.77650144552015   -0.50591833496487
H         2.97736847500776    8.71047856430467    0.43497564706616
C         1.41276118471438    3.53572725779658    3.24771420405320
C         1.31799847512303    7.70573327707333   -0.53420602152788
C         1.76082728804092    4.37972740212159    1.04706600841840
H         2.14495085196415    3.42405865509002    0.70831014027735
C        -0.13713532891554    8.00565560796613   -0.92149221650036
H        -0.72855648797373    8.26601548955101   -0.04768700099637
H        -0.59222942406696    7.13686601198113   -1.39370391073125
H        -0.16613454333641    8.83985428005093   -1.61705170901825
C        -0.02627524847123    3.09201778485324    3.54772772529636
H        -0.49973677694455    2.70221636093991    2.64842114269578
H        -0.62370543922748    3.92316117376890    3.91295847328976
H        -0.01897647527672    2.31448411518970    4.30664978404107
C         2.11582803623994    7.42399016082116   -1.81345043439475
H         2.14931033973501    8.33453906367163   -2.40571366949410
H         1.64663297410061    6.65454027066437   -2.42363844045389
H         3.14091337422560    7.13446153231316   -1.58563277490879
C         2.06197140014964    4.12479012287792    4.50779725693685
H         3.08491817805418    4.43205362725931    4.29790561974390
H         2.07744251175742    3.37651889456550    5.29528097356393
H         1.50950366083588    4.99055442276121    4.86698372162430
C         2.22350833744234    2.30574712462863    2.82105735497229
H         3.23598364408145    2.58022519494819    2.52763818516207
H         1.74241644234797    1.76434216330741    2.00866877112717
H         2.29300901150046    1.62873045098773    3.66828886289164
C         2.00940577556785    7.34468957446796    3.23722478928585
O         2.96768281532511    7.78381911898950    3.69046686682708

