63
CSD_code = KOCYAF | q = 0 | S = 0 | Stoichiometry = C28H26CdI2N2O4 | MND = 4
I         1.18114054348310    1.54702283012568   12.90905512608586
I        -2.64591676082639    0.51174727099054    9.78696732895665
Cd       -0.75020105314747    0.13616493487751   11.66594863419490
O        -0.09164329980046   -1.88678075000484   10.78141368866669
O        -1.47703754716646   -0.83445359425491   13.62551776478406
O         1.00168071668117    1.06742824740826    8.96490760983878
O        -2.42767202450613    2.64609132314995   13.11582549686264
N         0.65885166672847   -1.50605294920531    8.33482578678818
H         0.58113860567157   -1.23227432648651    9.33366388911692
N        -2.18686686124909    1.05459943979411   15.24823108428909
H        -2.10769414582330    0.62667706967059   14.30603433701594
C        -0.72026149785764   -1.28086992739470   14.54528764353733
C        -0.74907045893904   -0.72844849477222   15.88459806521659
C        -2.62775728679213   -4.43212462799713   10.75995073165012
H        -3.33436430583574   -4.89433450671499   11.43449256685753
C        -0.88045001143521   -2.78875847015748   10.35375896401956
C        -1.82757246942570   -3.42412065646007   11.20715074948865
H        -1.89884949735709   -3.07017461758055   12.22663825945424
C        -1.48913213998453    0.42145284133040   16.16438434534694
H        -1.45108040926267    0.84392357006764   17.16318956598079
C         0.19553651269026   -2.34714380359936   14.31309718731311
H         0.27353600863093   -2.72889150455708   13.30401241548800
C        -0.85705728690959   -3.22223132953883    8.97131422103779
C         1.64015304164672    0.62574996547732    7.84818565220944
C         2.44318461197776    1.41430110649923    7.03356034362298
H         2.62799032097256    2.44639064597280    7.28156241989730
C         0.88054819771244   -2.35795988022511   16.62865378102844
H         1.49265553857902   -2.79111045494077   17.40428524683660
C         1.43580896205710   -0.72420389646228    7.49178523606087
C        -2.55614728441256   -4.88611829781339    9.42879544112138
H        -3.19788499681252   -5.69037766120776    9.10457073358508
C        -2.92321535332322    2.22311059231756   15.38372910530993
C         3.02441831712637    0.88560812977154    5.89264369312616
H         3.64736797771707    1.51740040512501    5.27865504074789
C        -3.52149816076401    2.58416316525115   16.58482786572139
H        -3.41461931948974    1.94007925342771   17.44401197850008
C         0.05260714200169   -1.31131878645275   16.89732595729051
H         0.00173728573425   -0.88835207335479   17.89073851151435
C        -3.07582620169928    3.04128741026867   14.24424555686622
C         2.81475702005296   -0.43517068982878    5.54093173051803
H         3.27059427477703   -0.84347661381972    4.65292647238770
C         2.02471431039281   -1.23742285035763    6.34251912564102
H         1.87815635323728   -2.27668855236043    6.09160530965959
C        -1.69771751337216   -4.28587836160476    8.55916712922386
H        -1.65230725268355   -4.59668240052697    7.52494568326267
C        -0.08066033481244   -2.54777911591570    8.02729793643980
H        -0.12293590882012   -2.85924585695100    6.98862014226513
C         1.03061847284020    2.46033548189678    9.21147541050542
H         0.67145310586612    3.01815569306662    8.34243036184520
H         2.03387661256775    2.79419195990966    9.48947507771150
H         0.35807142783573    2.63556614475619   10.04909577838290
C         0.95951528231972   -2.86299363999166   15.31636437548597
H         1.64415322666034   -3.67238115858020   15.10617235875419
C        -4.27092251180868    3.74201436596003   16.67506832938697
H        -4.73386841982299    4.01225451681340   17.61087152762290
C        -3.84078290621200    4.19603802417914   14.35225622279415
H        -3.98831959057829    4.83629131923848   13.49831770555340
C        -2.39604070108344    3.56376890745252   12.03910358878590
H        -1.70582149052110    3.14950975643009   11.30634987864486
H        -2.02492565635850    4.53843503256328   12.36730369147042
H        -3.38144021141853    3.66776309443520   11.57679389059998
C        -4.43192817607077    4.53965779758818   15.55707888551466
H        -5.02397648937677    5.43983955338186   15.61468736233560

