51
CSD_code = KOFJOH | q = 0 | S = 0 | Stoichiometry = C23H24ClN2Rh | MND = 6
C         0.89666044236780    5.86108931393043    5.87541832167078
C         0.44960464543106    5.68537748585726    3.68828017667469
H         0.66353389779841    5.61141423968896    2.64219926277096
C        -0.72108020970760    5.59119226041875    4.35126546272866
H        -1.71184312713716    5.41752922748977    3.98590921924735
C        -1.41628603957064    5.79660056787266    6.70314803586715
C        -2.61323477804963    6.45524413777422    6.43776338585816
H        -2.78941499671417    6.89035610792747    5.46490236658673
C        -3.56957772293436    6.57556310628584    7.42944436078371
H        -4.49539872835379    7.08924873893937    7.21704407171092
C        -3.33850583838369    6.05028743507540    8.68956244829827
H        -4.08584746562012    6.15143713445425    9.46213180958723
C        -2.14771365388623    5.39371514905784    8.95211286659250
H        -1.96631415736933    4.97341354844752    9.92983046110122
C        -1.18717540816197    5.25922586959208    7.96564767701943
H        -0.26850622972793    4.71701391027063    8.16256255577655
C         2.78447986654766    6.13114145468927    4.33023328969350
C         3.80746321604420    5.61259291386366    5.11757435940966
H         3.57007308905001    4.93920708231067    5.93387695572082
C         5.12220079405907    5.92945985296216    4.82511801278308
H         5.91534237424525    5.52127847626532    5.43342242009807
C         5.42571957447564    6.75078432790489    3.75224614832680
H         6.45331686504980    6.99474736656385    3.52818240252337
C         4.40643891148383    7.25581953972534    2.96259025427530
H         4.63621485069955    7.89598353659450    2.12384565076531
C         3.08788967446584    6.95208695080595    3.24861473953699
H         2.29438177119593    7.36758496623313    2.64460702398580
C         3.54584861183822    5.71184628518299    8.96662588437149
H         4.01645439906507    4.74168504097268    8.80547740074721
C         2.38198748240679    5.74600590644194    9.70475398750777
H         1.98153711409811    4.79629757248990   10.05953863651857
C         1.90849301388107    6.96616451667794   10.46345109697230
H         2.77701775375258    7.54546262946996   10.78098603381409
H         1.38830571006503    6.64392536276161   11.36789635948910
C         0.95460910668866    7.84146444623725    9.62887183982692
H        -0.07346352649278    7.51047021421615    9.79844729160346
H         1.01713301336963    8.88497290286446    9.95883391791888
C         1.21881397216601    7.77069894295387    8.14221752453461
H         0.35422703110475    8.07210733353712    7.54873143569387
C         2.47826762360993    7.89172792717625    7.54923670184434
H         2.50889079699974    8.24598425525024    6.51881167779498
C         3.74197493254248    8.17436269298473    8.33486781268769
H         4.41578240463260    8.77328181034521    7.71846180571636
H         3.48897070200382    8.77374521398346    9.21103322645659
C         4.47406507134409    6.88610314533814    8.75634456169273
H         5.18946643410212    6.61754949931447    7.97547913810771
H         5.04590772302210    7.06211394522379    9.67443863382008
Cl        1.89000447475119    3.53629585866627    7.34265419230659
N         1.43535402091412    5.85938023143545    4.63194286911206
N        -0.43811974990825    5.71041951265287    5.69283917928300
Rh        1.89515026674263    5.85034005282133    7.59222505278664

