49
CSD_code = KOFXAH | q = 0 | S = 0 | Stoichiometry = C25H16ClN2O4Re | MND = 6
Re        2.64974590581214    2.10555544600611    4.78775469717037
Cl        2.74901128516233    0.04046634652950    5.96517851809444
N         0.76074004539823    1.15118552464457    4.14025033968116
N         1.25053955429763    2.59688232737709    6.32201730150884
C         0.10154339416013    1.90031309127186    6.31157726625420
C        -0.84252667437621    2.04446274044665    7.32835662362987
H        -1.77427733747235    1.50523874428361    7.28637226282587
C        -2.31605082298534   -1.80021302821323    3.98268204008198
C        -1.28120491360028   -0.76098020011539    4.03349533807130
C         0.59857517144281    0.38681270630967    3.05680053263014
C        -0.40523443641005   -0.57165676189362    2.97090897660362
H        -0.50042563571539   -1.15302741109891    2.06705415943345
C         1.50442163085464    0.56386638518093    1.90726022783977
O        -3.93871682125465   -0.32423491889324    4.91951116095618
H        -4.88361103380118   -0.28941604741960    5.11370691482608
C        -1.12297515063626    0.06509160215375    5.14098679238887
H        -1.76645696025637   -0.06607174032913    5.99281219916625
O         2.21140553043506    4.79455822767706    3.33002113210518
C        -0.10503297424499    1.00947172518532    5.16091420861965
C        -3.62136612848073   -1.55678032992242    4.43332111309607
C         2.38588843409340    3.78739855721592    3.86111192853646
O         4.58593818623606    0.84269335711720    2.73127969632817
O         5.12141446054989    3.06315049844632    6.37066209275617
C         2.54575861182943    1.97666824580973    0.26281520562254
H         2.69697677217661    2.95723117545598   -0.16202019212709
C         1.49114054529131    3.41643197083735    7.34266389997993
H         2.42711757927069    3.95937080913323    7.31207837684031
C         3.84555323979921    1.35372264997950    3.43933937553372
C         1.70616384354449    1.82510236119840    1.35080000661586
H         1.18600810976453    2.67867313868937    1.75956807633745
C         3.19385673907423    0.87705638301692   -0.27383548477033
H         3.85963459256304    0.99897426005657   -1.11484521194887
C         0.61637250734415    3.58978734753101    8.39789491564940
H         0.86900800154261    4.25866141366102    9.20450716914666
C         4.21971787950342    2.74848511430220    5.73766808565976
C        -2.01190525621919   -3.05805214705913    3.47013850181383
H        -1.00260713073051   -3.25403862148051    3.14091364077118
C         2.13926774875697   -0.54119681128205    1.34759405642677
H         1.99564899795299   -1.51867439464003    1.78467469220440
C        -2.96305043638911   -4.05804723377030    3.40706744706948
H        -2.70148698745932   -5.02884916443962    3.01612270400704
C        -4.57691593708997   -2.56179687066266    4.35246759462578
H        -5.58464705327768   -2.36005004440714    4.69244713249115
C        -4.25116511712901   -3.80657516951348    3.84708917616584
H        -5.00514585010125   -4.57723171260088    3.79857753687316
C        -0.58175948654972    2.89067344649728    8.38774898907950
H        -1.29762849949539    3.00480535973169    9.18739253837033
C         2.98817325172244   -0.38061700476998    0.26880718390787
H         3.49426862510696   -1.23888134323043   -0.14711093894015

