57
CSD_code = KOHSEI | q = 0 | S = 0 | Stoichiometry = C21H30AuClN2O2 | MND = 2
Au        5.99459612103989   -2.34143747323000   18.07316718596485
C        -1.30230385260567    8.61477762518745   12.95203772068344
H        -2.33286152642411    8.52184754531902   13.28597008136038
H        -1.26388079188636    8.45645483896563   11.87445487083684
H        -0.95939290588961    9.63154137544613   13.14430049632685
C        -0.41972258001541    7.63800446289791   13.64606095648348
H         0.62365779461493    7.67139289421094   13.36398655390981
C        -0.84114191128281    6.75405145391310   14.54937985356603
H        -1.89638905497347    6.71777411281952   14.79059563596807
C        -0.01585558727689    5.77710057274460   15.23397430844488
H        -0.55966161440352    4.96917515552874   15.70944472573331
C         1.31068041934216    5.80627713173405   15.34205641409430
H         1.89488363508799    6.59711788485370   14.89776440923386
C         2.11685310262621    4.73397831118041   16.00514959630555
H         2.73434595048476    5.15375872239237   16.81436215842078
H         1.46189397376547    3.95707839118560   16.42140440736986
C        -0.54765280517717    6.42365071459929    9.57515059972108
H         0.02531723640390    7.34071335375993    9.69693973777298
H        -1.58200932471669    6.62240397537855    9.84679022244021
H        -0.51828866723482    6.14269914968541    8.52448712271294
C         0.03138336626624    5.31310917507297   10.44300302024658
H        -0.02438005610163    5.60522113876849   11.49447911830306
H        -0.56819706205038    4.40842491423882   10.31969146808228
C         1.48366341423448    5.00914044400248   10.08160413133853
H         2.07866998050708    5.91789665888585   10.19743426754305
H         1.54164070792409    4.70793128522807    9.03258399442742
C         2.06863019276543    3.91043977759516   10.96352511980936
H         1.98208932458640    4.20684942464713   12.01027676193375
H         1.49681539993438    2.98937954281252   10.82589462685606
C         3.54219588032414    3.64479135490696   10.65768646279018
H         4.09794680198772    4.58053823352901   10.73185181637321
H         3.66066216677293    3.25202435023675    9.64649087753515
C         4.14248151837111    2.65143239510067   11.65035914480229
H         3.61376353314980    1.68963592570863   11.59789128301155
H         5.20553473965048    2.48214513542912   11.42733849513004
C         3.59443663665532    3.01953578401906   15.21790740158278
C         3.70288461561818    2.38333664695343   16.43831522069411
H         3.28107334751884    2.80114088681764   17.33681006134662
C         4.38046105666651    1.16682024070529   16.46212382043675
C         4.92353608607985    0.60613592964275   15.30377671578875
C         4.82534414957566    1.24215526024529   14.06890227397557
H         5.25017594420280    0.80520746190891   13.18101428315142
C         4.16657297938533    2.45477143849064   14.03534857721816
C         4.27912814866624    0.49373913264277   18.85094814242609
H         4.63315832255759   -0.34957565548452   19.44218235615051
H         3.19281514536393    0.56209533777493   18.93368873523532
H         4.72357450253728    1.41480098166337   19.23253213595705
C         5.34409329394731   -0.77300077588427   17.01064444162702
C         6.17826761302100   -1.47465753458173   14.78878043383675
H         7.02432949207899   -0.96920664488978   14.31954200172482
H         5.49356799482849   -1.81827092428190   14.01114569476292
H         6.53931502334435   -2.33164521991165   15.35569945526329
Cl        6.72143643424284   -4.10080604569827   19.26265178995587
N         4.66138626496579    0.28822831918512   17.48356415405103
N         5.50266556837817   -0.58244414207912   15.68614296546209
O         2.95202793218941    4.18756796291405   14.99594306664908
O         3.98928192831948    3.21795160502140   12.93514862714749

