56
CSD_code = KOJKUS | q = 0 | S = 0 | Stoichiometry = C19H27ClN6OPRh | MND = 4
Rh       10.89592956517331    4.35614003579864    3.47550810946225
P        11.93493947981678    5.71381834098100    4.91241519881951
Cl        9.50963861807899    3.20491888983338    2.10848251363305
N         9.58727660267994    5.87847707118097    3.42149082047489
N         9.69626971345395    5.38411748818470    6.35953011436299
N         9.48359407871304    6.71756883704296    4.46370920405429
N        10.48624059888243    7.61677161264961    6.43605780924465
N         9.91561394262606    4.14358510762024    5.91859913938547
O        12.82494712626456    2.10875662919481    3.20379956005041
C        10.30438562169536    6.45848468440429    5.62046344110062
N        10.73373109157357    7.47053571898625    7.74025689220883
C         8.63593437941068    6.20414349967826    2.56685231968006
H         8.52023108898722    5.66439181561036    1.64600338513187
C         8.42819490313743    7.54998854512142    4.30219060597670
H         8.15109940565424    8.26942550739466    5.04640028063745
C         7.87484504772525    7.26219334574430    3.08000070902918
H         7.03569090496292    7.74126635750739    2.62019727185063
C        10.59221471192892    8.91272297950939    6.05366891859302
H        10.44684313733978    9.22518549471574    5.04008415433378
C        13.15686735909430    3.83201593788492    6.53713077772409
H        12.24770690970308    3.25711874579616    6.34454827056786
H        13.86747753326753    3.59267120387297    5.74199258501009
C        12.77370071144111    7.26239577140990    4.35987657061472
H        12.09527555244231    7.82420680402782    3.70957026177184
H        13.05785749107192    7.89163899773661    5.20934320193512
C        13.74339479002688    3.42936463660903    7.88694627014022
H        14.65406014311963    4.00362937729161    8.07604371940817
H        13.02832506839149    3.67214136565107    8.67673751733493
C        12.82331390073368    5.32237699554028    6.48092804874114
H        13.73975768134080    5.91788195206784    6.52354227786782
H        12.19101602803225    5.60516445803610    7.32967281772844
C         8.74609557089368    5.40832923806116    7.32025458230574
H         8.43746762630191    6.31814103201940    7.79188649881415
C        12.09010545347130    2.97767330928850    3.33943793769693
C        14.06337387928921    1.94042394344588    7.93074441002286
H        13.16340065122730    1.35512086378579    7.75902038118350
H        14.47608008960554    1.66429548546603    8.89810092364430
H        14.78772487814694    1.68410320111765    7.16115355701605
C         9.12735599531468    3.35626914489733    6.61894962208381
H         9.12994776187180    2.29787717206134    6.45118781801901
C        13.99944245030154    6.83145100535351    3.55460961846480
H        13.66293855425232    6.18803701059492    2.73414546149672
H        14.65982015174796    6.23200200774728    4.18834430537175
C        10.90100172951812    9.63324248017028    7.18138702984300
H        11.04809395216734   10.69011572404250    7.25815203195994
C        14.77428807256576    8.02027004440775    2.99348284098236
H        14.11224168987532    8.61479765307473    2.35963997726885
H        15.10742497528563    8.65823503854990    3.81637088901896
C         8.36591801893551    4.10592048471856    7.52778541114819
H         7.64182229857873    3.74463229580634    8.22799318175628
C        10.97771757234326    8.67822455136248    8.20420409348220
H        11.19592876663503    8.82081477231948    9.24305961934804
C        15.98021726629700    7.56703005228103    2.18020700636531
H        15.66296915784785    6.94291755285777    1.34834167437817
H        16.66321307710274    6.98970375073758    2.79929157771459
H        16.51763717362167    8.42437397882379    1.78270678379038

