35
CSD_code = KOWREV | q = 0 | S = 0 | Stoichiometry = C12H16Cl2N4Pd | MND = 4
C         5.41147802495721   -0.70027960573460    1.96910019439478
C         4.87878300093829   -1.31494391759516    3.12402885248434
C         5.66107045675207   -2.24590180512091    3.77425156820789
H         5.28376956612162   -2.73644205843187    4.65928329645986
C         6.93135532606530   -2.55670874826762    3.29491550812032
H         7.54965669685372   -3.28467495791482    3.79282848207046
C         7.38485489400407   -1.90391831364450    2.17108744229400
H         8.37246318399173   -2.09528265020777    1.75676983177091
C         3.50915687866914   -0.94947951522440    3.60772874468643
H         3.26896420440251   -1.50387890093685    4.51075329212833
H         2.75762261986856   -1.18330688868613    2.85279357068878
H         3.45334823289673    0.11564446609552    3.82999702490356
N         6.64116981671557   -1.00201613772763    1.53124747196785
N         4.74085365762184    0.26172513747954    1.27791040698366
H         5.06429909249468    0.39527081527242    0.31098660098895
H         3.74886658658145    0.34094349723243    1.42883185643566
Cl        8.80671947485753    1.09805418629531    1.44646444546893
Pd        7.39325568726214   -0.00019339643421   -0.00026848347400
C         9.37435245598130    0.70058061163106   -1.96924685084321
C         9.90738968117554    1.31535787487449   -3.12400138811530
C         9.12566405802097    2.24680866705439   -3.77410795226737
H         9.50338568615272    2.73755178717987   -4.65885211265858
C         7.85536721660015    2.55793524202504   -3.29490112186543
H         7.23751813835609    3.28638394685461   -3.79271240715078
C         7.40131385903349    1.90475148488547   -2.17150925676327
H         6.41356537745593    2.09627853800979   -1.75755999309916
C        11.27690263505350    0.94908791271302   -3.60727989685306
H        11.51787857446337    1.50337558180532   -4.51016732563100
H        12.02826033146527    1.18222291871532   -2.85194594768980
H        11.33188164496238   -0.11608709506717   -3.82952605239712
N         8.14459645020241    1.00245147627191   -1.53166253054284
N        10.04474779698205   -0.26145029312100   -1.27806947702331
H         9.72147370771732   -0.39429876806686   -0.31089817501529
H        11.03675051768552   -0.34058923142620   -1.42881196771251
Cl        5.98676446763805   -1.10497186078802   -1.44745765095252

