45
CSD_code = KOXXAW | q = 0 | S = 0 | Stoichiometry = C24H18Cl2Ti | MND = 12
Ti        6.72232544170681   11.15155937894307   -0.22139768177722
Cl        5.42471596954590   12.91803858575521    0.12830863793921
Cl        6.57854064265619   11.38478889190606   -2.41790768187215
C         6.37164520773917    9.37528735010655    1.23537129071292
C         5.17489014013098   10.11835937932766    1.27067614841547
C         4.57237587588166   10.03965979193859   -0.00680701756745
C         5.38990953986976    9.24913234327257   -0.83179673409919
C         6.52808252553874    8.86983073444144   -0.08824588824367
C         8.58641964526820   10.78083525755955    1.15822057754727
C         8.13596416513889   12.11464670629224    1.30848243616282
C         8.39300439034424   12.79874344517233    0.09308973521783
C         8.96418028858305   11.88475171426603   -0.80796131605190
C         9.05599023315587   10.63097920433221   -0.16780806735573
C         7.32590735539363    9.12624579475157    2.33816161914069
C         6.87974162028017    8.24527470989679    3.42049408523500
C         6.02475136873636    7.18045147818551    3.13742853138212
C         5.57172213107911    6.35672615848406    4.15060212741659
C         5.95071774403972    6.59263762063913    5.46152245879970
C         6.78082279066902    7.66303305361234    5.75538947358943
C         7.24126508050144    8.48568364904526    4.74617812446952
C         8.51859934024290    9.74783898060207    2.22065842108446
C         9.72442839955669    9.52082521834573    3.01965662426538
C        10.06042728417519    8.24345935836169    3.47028194390273
C        11.21662936059350    8.03992835921029    4.19729294798973
C        12.05974145243696    9.10237511364962    4.48277032074900
C        11.74554875260783   10.37029701616980    4.02304560300139
C        10.59248339303687   10.57873367495605    3.29010309908498
H         4.74688742112047   10.58711088558275    2.14805360837767
H         3.61144404913095   10.45754331881270   -0.27744021478504
H         5.15619690947702    8.92981650318006   -1.83912899648858
H         7.27894230644393    8.15321144489801   -0.39990019332394
H         7.79200769227012   12.56690205477306    2.23214554608232
H         8.25361141938296   13.85888672401525   -0.07788763581598
H         9.32779044725952   12.11517325726219   -1.80048381208272
H         9.54133167987023    9.75039573021434   -0.56871134627554
H         5.72689036281855    6.99697014817198    2.11482211379694
H         4.91740431459572    5.52971316260309    3.91708727303045
H         5.59488894115234    5.94986671338047    6.25283663220388
H         7.06651037862103    7.85985107284835    6.77819465470902
H         7.87664433164291    9.32682817885866    4.97983639170384
H         9.41391061184248    7.41048782896583    3.23789846875400
H        11.46504568344094    7.04615179721352    4.53975937032304
H        12.96154340721903    8.94038588873831    5.05411130315728
H        12.40382408848239   11.20037192105744    4.23359106245176
H        10.35189581632193   11.56881040019977    2.93050595504420

