46
CSD_code = KUHLEG | q = 0 | S = 0 | Stoichiometry = C16H22I2N4OPd | MND = 4
Pd        1.74745757040637    6.43454450720273    2.45139229788506
I         1.53168206548383    4.40941028671634    0.82161588708454
I         1.93762226975054    8.44309329357532    4.11270469370718
O        -3.06433938160223    7.10109083397890    3.56052651325848
N         0.52076248619983    4.60912784277644    4.49738498202416
N        -0.57641510903184    4.37412611351206    5.18818828525150
N        -1.43789836813294    5.25837406518706    4.76395872971447
N         3.02679351916045    7.33759667611693    1.20161558520860
C         0.39858038681878    5.63349561315548    3.62611152860688
C        -0.91514117640616    6.05077024931183    3.80948136522465
C        -1.70409169849369    7.15423335921513    3.19214962954437
H        -1.26013095270971    8.12047845170710    3.49487249304682
H        -1.66998312710617    7.08599783996697    2.09749406061282
C        -3.22368978512253    6.83572776925723    4.93810819554381
H        -2.58805110400332    7.52537416546614    5.51999568131370
C        -4.67996831884825    7.01725489545248    5.34594498075677
H        -5.29800400837482    6.34915312152010    4.74440963110111
H        -4.98487179717736    8.04098771426580    5.12997326413083
C        -4.84134339524586    6.70696300482398    6.83241728882168
H        -4.26252539948732    7.42687626924118    7.41498021814198
H        -5.88931234823891    6.81596960720979    7.11337816632416
C        -4.36557642676815    5.29226767957729    7.15922116107129
H        -4.99564526963788    4.56775594548300    6.63921232237864
H        -4.45970119910216    5.11006443356055    8.23023668938377
C        -2.91210453318533    5.09284207673032    6.73506093224236
H        -2.26303977795862    5.77039166383526    7.29416409707384
H        -2.58605493565638    4.07113472429454    6.93226921465147
C        -2.78848401507124    5.39171129481125    5.24685030987688
H        -3.42331946284248    4.70274812330524    4.67322956464002
C         1.67800801951872    3.76510931826251    4.68131714493837
H         1.73977445594592    3.07755835055202    3.82819118803424
H         1.50302237669556    3.18941035216555    5.59255117915087
C         2.96107702653761    4.58391263479396    4.77837786409941
H         3.80010226744464    3.91980924113873    4.96725374208165
H         2.89647561176511    5.31117013701334    5.58777110861506
H         3.15329641764928    5.11802252698432    3.82417366861131
C         4.34936924663478    7.22985901348977    1.20521916923258
H         4.78415583359306    6.57655116307016    1.95874837463321
C         5.14457687974335    7.91208931336292    0.30067738303622
H         6.21648125535881    7.80017125417646    0.33503414116118
C         4.53736179744661    8.73185954101718   -0.63715030588053
H         5.12896268012756    9.27718120236912   -1.35644807237174
C         3.15411660142931    8.83939138602352   -0.63433688298464
H         2.64032211876869    9.46597881678283   -1.34592333457023
C         2.43617221118753    8.12365493743626    0.30510925904255
H         1.34311849253922    8.17610919010536    0.34888660455323

