50
CSD_code = KUJJEF | q = 0 | S = 0 | Stoichiometry = C23H21I2N2PPd | MND = 4
C         0.02068500581385   11.28083045934156    6.86657844492597
C         0.48278139590884   10.56990178066089    8.91315059206025
H         0.58953665647553    9.86160185230598    9.70835500725308
C         0.67193377980286   11.91005051890463    8.89402359988023
H         0.97925505778164   12.58537401071479    9.66544704583980
C        -0.27443371353644    8.86502625129739    7.25071685368802
H        -0.54049221678593    8.87792946004921    6.18569654959069
H        -1.13891037869184    8.51905771333772    7.82060392771482
H         0.56298912155034    8.18230403939710    7.40423830569299
C         0.49107815677142   13.67328561302151    7.10425077576410
H         0.14727782054857   14.38473513767475    7.85955389417387
H        -0.17768077045332   13.74934908208183    6.22035693429905
C         1.92118365738788   13.96021720894503    6.71711797274684
C         2.63687677428926   14.92953708365236    7.40770682055286
H         2.14739286979027   15.49042672995699    8.19122058651783
C         3.95975066748119   15.19182246450862    7.10065280346867
H         4.49801995164645   15.95177531202943    7.64608662297529
C         4.58812465066830   14.47790276050286    6.09359409201473
H         5.62103246400511   14.67453049330242    5.84918768349668
C         3.88595284696581   13.51561519679398    5.39461993725706
H         4.36838785488598   12.96806034053922    4.59624637267444
C         2.55309975989795   13.24068504439482    5.69809344254645
C         2.48676100190392   10.40492034361132    5.14332879702717
C         3.54119116529306   10.26001698194502    6.03475347084265
H         4.00634417516231   11.13148593860521    6.47496977992487
C         3.99132315383026    8.99167399736369    6.36352853307194
H         4.81002047707641    8.88061633743043    7.05945861009647
C         3.39948961564070    7.87121415296256    5.80526375245830
H         3.75959006463958    6.88651027583526    6.06341370006992
C         2.33990204614432    8.01031217619912    4.92030992142514
H         1.87307206271217    7.13692986742910    4.48969274155389
C         1.87560886688013    9.27152301889878    4.60021493547115
H         1.03317410125253    9.38963149448068    3.91200917780571
C         2.42810235661598   12.36499140160011    3.04347049314075
C         3.21351100330019   11.47802768204011    2.31920426526684
H         3.46224949672949   10.50774496626868    2.72784566510925
C         3.67267842398425   11.84416594906579    1.06570814780599
H         4.28166260427014   11.15499042435689    0.49952442414818
C         3.34567952061793   13.08002181223972    0.53479907764812
H         3.69894682871670   13.35362994625467   -0.44789718741546
C         2.55438411437965   13.96240019687368    1.25454991899973
H         2.28703645826594   14.91978944776607    0.83389687118853
C         2.09308006884220   13.60582349585689    2.50503023452429
H         1.45310804327279   14.27543278785426    3.06924922638627
I        -0.99035877612727   11.63084982191249    2.43348894166457
I        -2.92509643254018   11.01345109324647    5.68941890946366
N         0.37528982075808   12.33023440777447    7.62377568525354
N         0.08442327656388   10.19877373232576    7.65413561333472
P         1.71174600900177   11.98088491922202    4.66642570479308
Pd       -0.46996095939127   11.46733477716671    4.95913232380639

