25
CSD_code = KUNBOK | q = 0 | S = 0 | Stoichiometry = C10H10Cl2N2Pd | MND = 4
Pd       -0.02167511836046    1.97608876171967    2.16025377329271
Cl        2.02381154902814    1.97801860189222    3.18279453816876
N        -0.02165559431707    0.04450685721240    2.15946794621160
N        -0.02131047282624    3.90732663929660    2.15955926469679
C         0.59528917695464   -0.62669169449990    1.18881452297540
C         0.61787935046052   -2.00971704849578    1.15109200613263
C        -0.02079183932106   -2.71862874508946    2.15746820061228
C         0.53779444498113    4.57851802289146    1.15434289493360
C         0.55842451778938    5.96147981427920    1.11548312302714
C        -0.02058473488469    6.67032940694359    2.15750933636216
H         1.08595040761015   -0.02652969892993    0.42241548706203
H         1.12602124565407   -2.51987736695296    0.34818775572201
H        -0.02079304363859   -3.79787206679548    2.15638557605252
H         0.98153026862842    3.97837664089412    0.35987575677269
H         1.01967672383788    6.47154573994728    0.28484676492726
H        -0.02025224947195    7.74952445742613    2.15675037865829
Cl       -2.06691250957694    1.97636324555033    1.13913773896524
C        -0.63790235326748   -0.62854222149370    3.12934403575651
C        -0.65973402301644   -2.01165271989614    3.16496236743932
C        -0.58021397774415    4.58027000366411    3.16368620941199
C        -0.60008195479726    5.96331354338951    3.20049992755943
H        -1.12852120856865   -0.02988714561578    3.89692373162528
H        -1.16794752264908   -2.52334295544502    3.96671755750724
H        -1.02445097605535    3.98153319102857    3.95889660912220
H        -1.06105010644847    6.47484673707384    4.03038449701098

