39
CSD_code = KUNCIF | q = 1 | S = 0 | Stoichiometry = C12H16Cl2N8Rh(1+) | MND = 6
Rh        3.97912082147792   -1.81630119549589    7.14655531224642
Cl        5.84408467035420   -0.42191676113937    7.40973645105646
N         3.80895317296283   -1.16436677397444    5.23861774868686
N         4.70645818666845   -0.33834889645774    4.68947028171409
N         5.15541519507084   -3.33423693986945    6.51272984524942
N         4.64370891387604   -4.46950939968935    6.02400755794412
C         4.38845100594270   -0.05332087614494    3.42234848163530
C         3.22408671746863   -0.73186364948156    3.13228988115309
C         2.89861640958314   -1.41414112421691    4.30225393180481
C         5.61144063473562   -5.31639443107737    5.65709310136047
C         6.81494983067125   -4.69656053767883    5.91689272106359
C         6.47797709651767   -3.45612153746308    6.45381339880007
H         5.48772612139617   -0.00723182833577    5.25584648138300
H         3.63130358695750   -4.59266525702751    6.01180682696200
H         4.98873247096181    0.59455143268682    2.81673004232194
H         2.68152946525375   -0.73779009032180    2.21092043980163
H         2.05773960768405   -2.05533180990530    4.48196782859778
H         5.39743198934361   -6.28073010462065    5.24340341759769
H         7.79885472824349   -5.07903290450075    5.74673894215206
H         7.13708605130566   -2.67783536596142    6.78600037718280
Cl        2.11456265050192   -3.21073343197992    6.88332040503916
N         4.14881414473835   -2.46702597345555    9.05453417110550
N         2.80217301169713   -0.29871870874058    7.78039572157997
N         3.24467435313467   -3.28291500193983    9.60787090865350
C         5.06239277720378   -2.22154776265046    9.98884380851703
N         3.31306878567714    0.84233911662841    8.25635235326008
C         1.47963336908393   -0.18199786138905    7.84979642455160
C         3.56187876703222   -3.56609694253225   10.87563641292079
H         2.46168243707379   -3.61177979014017    9.04270160959085
C         4.73236437743954   -2.89652557637704   11.16178081176077
H         5.90838546113331   -1.58809548149717    9.80582307062312
C         2.34485939481892    1.68748981851046    8.62583109832187
H         4.32518266940628    0.96824937169956    8.26299377917316
C         1.14184950499851    1.06076621016359    8.38072134511621
H         0.82113601481183   -0.96523802509903    7.52835297445742
H         2.95671411134003   -4.20632858560776   11.48449909141654
H         5.27604569151797   -2.89182128258613   12.08248437309937
H         2.55814260480828    2.65569541179856    9.03070209448271
H         0.15777319710635    1.44013254587059    8.55663647761751

