40
CSD_code = KUSFAG | q = 0 | S = 0 | Stoichiometry = C13H20Cl2N2O2Zn | MND = 4
Zn        1.57254284302148    8.54600599935624   16.01705381040328
Cl        1.19126859876738    7.15791821885722   14.20760091391984
Cl        2.89061358448545   10.13136976962463   15.20555860299777
N         2.72700050216795    7.26764618231022   17.08432781736991
N         4.11299375105681    7.06125084394129   14.13688424296408
H         3.01587336482306    7.09780238980295   14.15129535434997
H         4.35644320874160    6.11684918019042   13.82993053144930
O         0.26865281804434    8.87478914740869   17.26197194644997
O        -1.84452223564173    9.01955949878277   21.37760690342806
C         1.32736859389991    7.63879710512769   19.04209226707449
C         0.30801061038382    8.48230873530580   18.48652300998552
C        -0.72788483531808    8.90067718491434   19.34512722626839
H        -1.49946849788047    9.53186250502807   18.93412540821394
C        -0.78937401347659    8.54119063827050   20.67519798896259
C         0.21768275971716    7.71939986491252   21.21680136068612
H         0.19886502848353    7.42214573822800   22.25261481088138
C         1.23193042721090    7.29387891049159   20.40722577139791
H         2.00266334672592    6.65989769014144   20.82496695483021
C         2.42009579558009    7.09577173451673   18.32760170991771
H         3.06772772809817    6.43647061298419   18.92062912004016
C         3.85178547960352    6.52239002046152   16.56000862161046
H         3.47047749912869    5.59237486336096   16.11785233734340
H         4.53250825583715    6.25058219200191   17.37874798690370
C         4.62920228114692    7.30525966791869   15.49799803917990
H         4.52955183302459    8.37593451957759   15.69560707738548
H         5.68318648066265    7.02375925640835   15.53822075369666
C         4.54872983151312    8.03872971079185   13.10147224201189
H         4.23278785409208    9.02286318180070   13.46332374533242
C         3.81583447370932    7.70069102811378   11.81267836754385
H         4.13624677688166    6.73684086717946   11.42112467649926
H         4.01829066208712    8.45846850176827   11.06272563749136
H         2.74475849948616    7.67102775707333   11.99011991447616
C         6.05840306938095    7.99451481402411   12.91714388369102
H         6.39094606508977    6.98736151220546   12.66854425281266
H         6.58001226349934    8.33386832371109   13.80689183551244
H         6.33879800383553    8.65197368123489   12.10003426706411
C        -1.96994792432791    8.68407909273331   22.73922155527119
H        -2.06974574271133    7.60313747639083   22.88028066271469
H        -2.88031393987061    9.17539211850202   23.07923912035349
H        -1.12179510098215    9.05195946448758   23.32522927161986

