47
CSD_code = KUWLAR | q = 0 | S = 0 | Stoichiometry = C21H20AuClNO2P | MND = 2
Au        5.14103603051513    6.75088662800039   15.42344210377574
C         5.93988962819602    4.98798014717581    8.41048675331342
H         5.66361340814338    5.89055852801276    7.86230813485188
H         5.30456300139876    4.15489332572553    8.12266809371398
H         6.98796165737281    4.75924611068280    8.20718579998018
C         6.37358287868823    6.20221400144559   10.36715008501244
C         6.03404205169722    6.31906499651548   11.83880393086258
H         5.88905512333895    5.32254901111891   12.25843970496111
H         5.07273630390035    6.84229746315658   11.90994221730616
C         7.10507196421449    7.10476240413348   12.60129773732818
H         7.61108221474833    7.79010183993080   11.90713876669299
C         8.09236061472864    6.22946441180975   13.30153305018669
C         8.90604900418638    5.26342702204182   12.73175413856199
H         8.89343188545339    5.09527810715509   11.66610349849831
C         9.73031890213806    4.53350654094432   13.57348055690228
H        10.37855689135072    3.76843358251864   13.17292187592368
C         9.71152714323503    4.79599902036897   14.93623988975131
H        10.33812888824191    4.24131421217575   15.61603163736852
C         8.86801913670966    5.78612412422437   15.41120407992968
H         8.81272428604228    6.03300889215469   16.46196998837114
C         5.28769093978477    9.23710016493135   13.19329436690333
C         5.30979719127556    9.58172108926623   11.84543451683431
H         5.97602576695610    9.08823813797798   11.15234114318216
C         4.46069584734664   10.56865803637270   11.37338540888142
H         4.47848969551825   10.82827832041188   10.32474773871729
C         3.59402348348001   11.22150678296442   12.23318638637479
H         2.93559797393404   11.98948014812025   11.85538045531451
C         3.56982828850898   10.88609720422016   13.57791450544907
H         2.89435179518474   11.39129034614836   14.25208512320772
C         4.40977348400393    9.89736274701859   14.05052345747156
H         4.39641555247285    9.61300048205724   15.09697532097702
C         7.60319845370679    9.15046635100964   14.66548185986359
C         8.25929588833716   10.04283944348295   13.82598901603578
H         8.03660959813856   10.05666304666579   12.76781300327049
C         9.19001736566900   10.91826826161334   14.35532720056060
H         9.70740941081796   11.60931097207543   13.70598788798942
C         9.45389393643020   10.91580837552634   15.71573349682991
H        10.17843813677935   11.60482423761472   16.12385089434786
C         8.78590589032651   10.03748925077411   16.55459813242719
H         8.98677545817351   10.04445277613412   17.61577730987603
C         7.86079910377465    9.15428829817256   16.03090959152229
H         7.32835527985246    8.45642791327027   16.66397212124377
Cl        3.95310120205974    5.42025064441876   16.81355437385422
N         8.07954268648282    6.47673906413929   14.60514295436871
O         7.11220096589869    6.94616488828054    9.77469052012742
O         5.73760999337135    5.17678704124300    9.80657515486457
P         6.35160559738422    8.00667560683527   14.03112601614764

