49
CSD_code = LAMPEU | q = 0 | S = 0 | Stoichiometry = C18H26Cl2Si2Zr | MND = 12
Zr        3.72075102675836    2.95496232570174    2.50494673317291
Si        6.47067049914498    3.45368304307169    1.02095502464797
Si        6.18534574576146    1.47397762510699    3.82551026180712
Cl        2.26826275991200    4.19978168075876    1.15628542462618
Cl        1.99836525404946    2.30730376595430    3.95168835963156
C         5.34861476254464    1.92653364104469    1.09040955180368
C         5.21035662705551    1.08007977922763    2.24785581067983
C         3.92929836906080    0.46262367190115    2.17659464988816
C         3.26649533773319    0.93627372651634    1.01449062141185
C         4.14172166031226    1.82273770204484    0.34746067254277
C         3.39569536137795   -0.62322200363693    3.06487824459611
C         1.88419445656966    0.54666639069084    0.57577057912661
C         8.35929723262046    3.19431218628972    0.96247320594419
C         5.89701392805076    4.44246779267076   -0.51070518770167
C         8.03858232239478    1.02678480387464    3.76709997199986
C         5.38450683059504    0.74474952914410    5.40021964686550
C         5.69381009888447    3.30537075066980    3.80655719060237
C         5.80302019994676    4.15734910702479    2.65009696821075
C         4.84027215810683    5.19691854716054    2.79138451299866
C         4.12147301939872    4.98268653516702    3.99621041288614
C         4.65403028843060    3.83170109405332    4.61960325386976
C         4.68520437691277    6.41288760097266    1.92519967314041
C         3.00519797720824    5.84326477025000    4.51427357133097
H         3.94999449081641    2.27233148579229   -0.62063901186375
H         2.94967068073465   -1.41185161061508    2.45758274914984
H         4.19496210147736   -1.05822639031146    3.65889570344331
H         2.62044101351341   -0.24574176229670    3.73602593654831
H         1.57845136632257    1.13956825446758   -0.28589152366031
H         1.84244992175108   -0.50957137949821    0.30118723509752
H         1.16732265861866    0.71212546541850    1.38584599930182
H         8.79445414878423    3.14930334558530    1.95285998234630
H         8.61426826403857    2.28057844261575    0.43788593337111
H         8.82831583719050    4.01602688132738    0.43309789291419
H         6.05607918214612    3.86074876476472   -1.41335397617879
H         4.83932270070617    4.69029499467631   -0.45094366039709
H         6.45593868308883    5.36442674966992   -0.62633489323955
H         8.64026851519192    1.77924523010880    4.26407072936520
H         8.20708529561860    0.08514775532375    4.27747876356166
H         8.39952022674796    0.92039964190644    2.75181412471528
H         4.30753064899510    0.89898865192912    5.40664055936018
H         5.57598290744626   -0.31848272078984    5.49305896542671
H         5.79790393568896    1.21907063565731    6.28485370175761
H         4.37058958409004    3.47135165017329    5.60240586996536
H         4.59472395215615    7.30248630190700    2.54969269339028
H         5.54997333956386    6.53424086960422    1.27849381554209
H         3.78646295045670    6.35126309511062    1.30688362196358
H         2.25087059506968    5.99621298446762    3.73686283127033
H         2.52930477127069    5.37028443255948    5.37312677227200
H         3.37533193568574    6.82398416478642    4.82124003049443

