57
CSD_code = LAMPIY | q = 0 | S = 0 | Stoichiometry = C22H30Cl2Si2Zr | MND = 12
Zr       -0.58101572763983   -2.52678073187150   -4.44314667662920
Cl        1.72640552223518   -2.21082248897964   -4.62807681949357
Cl       -0.85551552677611   -2.99167974944552   -6.71705541464967
Si       -3.58906405548840   -2.65993360421591   -3.46582403346239
C        -4.54015103297352   -3.15761395872330   -5.04650137828319
C        -4.83377542895141   -2.44827250235958   -2.03571612600810
Si       -0.95232751436938   -2.14086080916049   -1.32596186018890
C        -2.11897196596141   -2.17055281402462    0.18313225887476
C         0.81137877265403   -1.70343474438385   -0.73538257893721
C        -1.34425564459928   -0.97714098787306   -2.77178039398634
C        -0.34342860301329   -0.22077936904718   -3.43429575898434
C        -0.76452204761352    0.03411129524974   -4.75493376415364
C        -0.05892782825977    0.82314259527961   -5.82217416337142
C        -1.09201865325457    1.36779923558967   -6.80997804128951
C        -1.99029672220297    0.23504531458678   -7.30227421235427
C        -2.86271489125330   -0.31574586834142   -6.16854721844500
C        -2.03693647138144   -0.56140927434210   -4.93570951653281
C        -2.41614818605087   -1.19297460330702   -3.71348799531603
C        -2.16760221953030   -3.90036317447428   -3.27100119090684
C        -1.75684817394099   -4.76162868746667   -4.32070176027416
C        -0.39823277932425   -5.08836800442678   -4.13653157893445
C         0.46417700633873   -5.99315507879303   -4.97152127566650
C         1.59699641333404   -6.54762932160804   -4.10599821451426
C         2.31937658480890   -5.40389254119789   -3.39706806851329
C         1.40841568664735   -4.72336624549683   -2.36912195912297
C         0.05899112076435   -4.43368673797495   -2.96668010052883
C        -1.02664739505411   -3.69121544756442   -2.41259170067384
H        -5.08663528480960   -4.08025290926856   -4.87797978320428
H        -3.87043303681534   -3.31665863825046   -5.88831023612698
H        -5.26603328137160   -2.40142158795888   -5.32538136400275
H        -5.79425775633286   -2.13426743537573   -2.42878714777597
H        -4.51015288931550   -1.70224894717814   -1.32106829377164
H        -4.98790781790317   -3.38139350371512   -1.50582197738231
H        -1.56352967092732   -2.45374966516713    1.07027469961788
H        -2.92715646639036   -2.88020651991623    0.05968384600164
H        -2.55061393636572   -1.19323717222648    0.36716476715702
H         0.80963396516097   -0.73871628741544   -0.23821643234067
H         1.51364518162042   -1.64990216492587   -1.56427118057191
H         1.18078066113655   -2.43105778624005   -0.02120113888936
H         0.55836023226108    0.17467793969004   -2.98223544624701
H         0.51586782541532    1.63895048634199   -5.37479982093018
H         0.65023247891422    0.17319097104767   -6.35675523530162
H        -1.70176771768535    2.12714094133313   -6.31402112169415
H        -0.58581982148175    1.83783746738835   -7.65494063800871
H        -2.63199609237901    0.59045188571592   -8.11085886393222
H        -1.36574043621096   -0.57026606685077   -7.69667703511267
H        -3.64461419841634    0.41391990443058   -5.92437559545957
H        -3.35835062996957   -1.22810024136597   -6.50717567913911
H        -2.39654953295153   -5.17479460082066   -5.09148024586552
H        -0.13370656609498   -6.80619748267274   -5.39304307327550
H         0.89130753439860   -5.42618979696070   -5.81258724729109
H         1.18226782226881   -7.23304149276878   -3.36259604313204
H         2.29964506746182   -7.10572147000534   -4.72729649750213
H         3.21265945827921   -5.77974210515209   -2.89429629048639
H         2.63513400630339   -4.66640403238600   -4.13908067152500
H         1.27183336165561   -5.38910464808941   -1.50797014886955
H         1.89075730140181   -3.81278673686125   -2.00766656259517

