44
CSD_code = LAMVOK | q = 0 | S = 0 | Stoichiometry = C14H25BrN2OPd | MND = 4
Pd       -1.80896879612634   -0.55453142529810    6.43301654946354
Br       -1.27195293352274    1.50985640530328    5.43396418513193
O        -0.29464285994617    2.88313490366397    8.52504616590318
N        -3.71110949171207   -0.86424680502260    5.22031514354168
N        -2.39334853815634   -2.51215166490712    7.25517054892799
C        -0.15795258414331   -0.46623169195324    7.53287747705715
C        -0.19151984115003    0.06003309281863    8.82095342908232
C         0.92466991932996   -0.09241075253092    9.63465154611603
C         2.05591145340332   -0.73585765280544    9.16483138165712
C         2.09531662020750   -1.22024671781853    7.86870415243902
C         0.98413654335028   -1.08385347257586    7.04975027140672
C        -1.40554648246887    0.82689274100642    9.29214124105248
C        -1.06118980166310    2.30665840575137    9.54129647151742
C        -4.15693900258640   -2.22987699522859    5.50053912052131
C        -3.81549108282696   -2.66432281827065    6.92949878807640
C        -4.64184185340300    0.12169565555063    5.76776966477546
C        -3.57336505899838   -0.65684292871011    3.78098825302134
C        -1.57504369661914   -3.47160976347009    6.51467284113656
C        -2.20647000132322   -2.72771348364061    8.68682524355126
H        -0.67403321048881    2.65821903582840    7.66157692318189
H         0.90673978474627    0.30247291770832   10.64050745402381
H         2.91754476810205   -0.84523964812661    9.80708791627998
H         2.98825839413794   -1.69923950017003    7.49248513586175
H         1.02129703579921   -1.44257085289876    6.02136248740689
H        -1.80181420929631    0.40360067209940   10.21939980789216
H        -2.19266533120968    0.76920153350881    8.50953041220706
H        -1.99947742239736    2.86783780836005    9.69114780475191
H        -0.46058903318263    2.40128700392554   10.45106613125741
H        -3.67220291273802   -2.90752476939990    4.79144810587517
H        -5.24617118181378   -2.32660228353102    5.35535172546999
H        -4.38780327839705   -2.05706481274921    7.63817389606245
H        -4.12715801136101   -3.71467499439209    7.06254396136373
H        -4.71739221861321    0.01618927679257    6.85395747696034
H        -4.27348880610432    1.12523030083402    5.54486992984577
H        -5.64599013413809    0.00839809858693    5.33232023884293
H        -2.81608208478232   -1.33304931903003    3.37759175821872
H        -4.52413645005821   -0.83068943550263    3.25735679700324
H        -3.24934859687882    0.36676126960433    3.59248770292895
H        -1.58026109290817   -3.24086490557197    5.44632674947653
H        -0.54583846842344   -3.41227263914435    6.87098784870877
H        -1.93878851399459   -4.49962736913655    6.66091357234299
H        -1.15572172558416   -2.60013738020117    8.94517267672901
H        -2.78843949908570   -1.99943949867713    9.25225384884979
H        -2.52529031297435   -3.73857554057821    8.97816716408267

