35
CSD_code = LANBAD | q = 0 | S = 0 | Stoichiometry = C12H19IN2Pd | MND = 4
I         3.16853938761078    1.15489753424597    1.84566832059831
Pd        1.00001460427964    1.94710604293045    0.79656644999598
N        -0.85666449912629    2.58798133662783    0.01353962084207
N        -0.22871301164337    1.96340180771257    2.75836321611198
C         1.62496627976952    2.26560750589903   -1.06839322986216
C         2.71924890994236    1.75225912768353   -1.74662198416708
C         2.91620655107865    2.05695973242124   -3.08742012483378
C         2.02032936474550    2.86416187857403   -3.76350576527956
C         0.91126600839549    3.36551018522545   -3.10267370425708
C         0.70917766497183    3.07124915473288   -1.76348164204531
C        -0.49035377612148    3.58672524490128   -1.00228505691783
C        -1.67350737386086    3.13419404962265    1.09625132340078
C        -1.60879644364901    2.24496226456506    2.34678808240139
C        -1.51064223798771    1.45087144048028   -0.62904069635898
C         0.37211284772675    3.13049251385701    3.40942445560203
C        -0.19954341962667    0.82501238179497    3.67144346150937
H         3.43473815826476    1.11691134591540   -1.24295444419526
H         3.77803929932493    1.65680404377585   -3.60128848517612
H         2.17667825812175    3.09902717358137   -4.80611980990816
H         0.19807602452543    3.98708228841344   -3.62789442321015
H        -0.21818864091465    4.52221038084537   -0.49442768940423
H        -1.33940923320771    3.79916202916096   -1.67145573580663
H        -1.30045184086117    4.13365562382284    1.34400030524312
H        -2.72585713132217    3.23802447257399    0.78430857402961
H        -2.16719968703394    2.73630764960061    3.16230680296845
H        -2.10495744022497    1.29218612252217    2.13707144084263
H        -1.61693708530599    0.61881942803541    0.07077973739234
H        -0.90544907976354    1.11276068083683   -1.47309526921613
H        -2.50833264818305    1.73041527447363   -0.99968037834017
H         0.52386147097470    3.94238728450097    2.68605914787765
H         1.34775851708067    2.85577074064934    3.81359439272680
H        -0.25819271253790    3.49831357491394    4.23283904453093
H        -0.59498794702849   -0.06167538080385    3.17290070690067
H        -0.79184993833234    1.01927043032631    4.57671745696797
H         0.83052079991772    0.61887463558111    3.96091589903647

