38
CSD_code = LAQZAH | q = 0 | S = 0 | Stoichiometry = C16H13ClN3O4Re | MND = 6
Re        7.51140871190384    9.10180651306533    2.55876499951174
Cl        7.53158348473003    7.29851924713196    1.00748243057988
N         9.61870479244584    8.98641399390785    2.20111264091591
C         7.66245765151497   10.49359803120271    3.90371895651998
N         8.16795151674860    7.52885013905805    3.85017759468683
C         7.11429062413801   10.33609906292767    1.10180214684192
C        12.22808145906204    8.37719491065067    1.47485487836335
H        13.23922361027427    8.13296659704587    1.18781173128740
C         5.60254417931487    8.82437432090369    2.84355037645264
C         7.39173470709801    6.83794916191418    4.67804681331562
H         6.41491371020466    7.25699908136771    4.88289377605225
O         4.49801683790491    8.55708065395061    2.97979128277403
O         6.92582315314418   10.98431058190524    0.17804045253240
O         7.77692462500700   11.30210088794833    4.71338856159814
C         9.39799461582760    7.05471786698030    3.57665812959177
C        10.21424593697916    7.87768391461836    2.67577239290021
C         9.85117678527580    5.85777725851987    4.12182407016100
H        10.83106673177610    5.47344601334167    3.89224270087591
C         9.03278105268607    5.12818518292322    4.97123868051239
C        10.30660305195433    9.78168709576394    1.38808645226815
H         9.79385650547457   10.66737167393397    1.03531348512445
C        11.52618015139809    7.55237577293449    2.33285626597898
H        11.99141904781440    6.66356722169342    2.72547908574451
C        11.60594219703063    9.51945428033453    0.99393339052688
H        12.11209700224114   10.19362296731159    0.32220572718877
C         7.77592979295630    5.64529831141083    5.26261089564782
H         7.09554266270450    5.12438338393153    5.91802915349341
N        10.48018785693278    4.11792712577407    6.65594131737158
H        10.10699425351978    4.26745035659698    7.57912745315651
C        11.80205220302066    4.31984253789449    6.42853065578675
C         9.54455609978969    3.84869001124222    5.57917730144686
H         8.72135693446416    3.24636209258439    5.96773369239157
H        10.08968453065551    3.28062188159478    4.81929821174012
O        12.28593031719942    4.26681108290253    5.31849890108203
C        12.59669264260349    4.60041037808546    7.68367436186097
H        12.26743478280686    5.53601682826565    8.13176215891954
H        13.64986421937572    4.67831748133176    7.43049861117910
H        12.45785156197921    3.79831609703704    8.40487026364352

