55
CSD_code = LAXCOD | q = 0 | S = 0 | Stoichiometry = C26H22Cl3OP2Re | MND = 6
Re        1.08919628727502    1.93906131228816    3.34749241986719
P         2.77616465427171    3.47642292283525    2.52845074372558
P         0.91908094635657    3.52493379899099    5.17533137390251
C        -0.55004289161410    4.59702150229422    5.27794500787989
C        -2.77977263990938    6.22861909688749    5.43481377055183
H        -3.65082191778864    6.86356268428666    5.49977402609630
C         1.10129019567010    2.95723224898510    6.87507495844939
C        -0.69555647803209    5.47278096250008    6.35104639014565
H         0.05595983534769    5.50282231548861    7.12887573961866
C         2.38521481920957    4.53487214069891    1.09804513961688
C         4.42330555636613    2.87193021462098    2.12092482803375
C         3.36311106698757    5.37305887383879    0.56820236784395
H         4.35820025987234    5.37701299802284    0.99307452093628
C         4.55973896537962    2.18746017682780    0.91600940196540
H         3.69648129622745    2.06343934709590    0.27638532671425
C        -1.52278059136701    4.53815966474931    4.28901187388695
H        -1.40020595744086    3.83908941480474    3.47057968645768
C         1.28500282323946    1.94638053941095    9.43827928662964
H         1.36093385049308    1.54694562272960   10.43874689359334
C         2.28857254055820    3.09389282062451    7.58479615601286
H         3.14181127763687    3.57198558946251    7.12455344779292
C        -2.63773177564211    5.35431311400228    4.36996509265605
H        -3.39775703533049    5.30459524773567    3.60506466513357
C         2.21148695361522    4.77160242864658    4.89660146092158
H         2.28448305573754    5.55624655490847    5.64293660584510
C         0.00917276640568    2.30473388361639    7.44118109679399
H        -0.89605661996265    2.18550853922363    6.86148544908560
C         5.50736778773136    3.01574403095642    2.97877145908009
H         5.38352370847624    3.51858083901963    3.92755527027084
C         0.81651700775311    5.32214416819345   -0.53766506311348
H        -0.17056317734401    5.29871932326883   -0.97391933282267
C         2.37176854955929    2.59218591386096    8.87071909582735
H         3.29172032788278    2.69429824681824    9.42727881309894
C        -1.80994685469332    6.28662640129874    6.42428688440657
H        -1.92661493280434    6.96484362401713    7.25679124024395
C         0.10627729384871    1.79946559214563    8.72345640127254
H        -0.73327731256231    1.28265430234617    9.16335145412472
C         1.78789467501030    6.15931228769741   -1.06121301207879
H         1.55750554693654    6.79181798920188   -1.90557901791253
C         1.11291104203514    4.50955169665171    0.54286480028320
H         0.37063991820598    3.83854239777788    0.95787501562409
C         2.97816471905229    4.74897782627608    3.80991470983851
H         3.72037645566258    5.51433127179277    3.60636840992539
C         6.87376043823035    1.81278131396066    1.41478562582984
H         7.83195030598592    1.39544641966208    1.14284468587652
C         6.73377312544079    2.48989937499926    2.61568296147234
H         7.58045195506084    2.59830824777209    3.27740289472581
C         5.78731996539237    1.65770309594315    0.56771255248212
H         5.89638265147665    1.11622152458581   -0.35980985047147
Cl        3.03600323296870    1.74079348618834    4.70821270831920
Cl        0.10496738474873    0.31259158687552    4.63862739256676
Cl        1.93070908850433    0.26383692059267    2.01842006509136
O        -0.19582606030996    2.48152913701534    2.43966330103324
C         3.05989690287556    6.18313884576706   -0.50946397620940
H         3.81726501131866    6.83207011973256   -0.92398321896617

