43
CSD_code = LECRIW | q = 0 | S = 0 | Stoichiometry = C12H26Cl2N2Zn | MND = 4
C         8.02390767898831    8.82348597709099    0.87934076544128
H         8.14356925344019    7.73651074710687    0.85534555860700
H         8.78489457654212    9.27879843492766    0.25137599744353
H         7.06113302625443    9.09373661213746    0.45436012471567
C         9.32378428579285    8.78573115532216    2.90506838434783
H         9.21612453274427    7.69702186570016    3.01141031536702
H         9.38510043808928    9.23019575922238    3.90111779653692
C        10.62082967325483    9.08548958194916    2.16804895841690
H        10.70387891637914    8.52099765637970    1.24353510674842
H        11.45964634043947    8.82145889121806    2.80702818927381
H        10.69216599319618   10.14941123075529    1.94104590935712
C         6.92383704824570    9.11598336041323    3.05290275166671
H         7.21966228368245    9.27058348757651    4.09624024816297
C         6.37270926605725    7.68811597653668    2.91482454336340
H         6.08124620454386    7.50174077655875    1.88080231662484
H         7.14982758517543    6.97109749073824    3.18456605103866
C         5.14896497583968    7.46769139388445    3.79520481716321
H         4.79645863917828    6.44172756677245    3.67809271587570
H         5.40993610981481    7.61495068559470    4.84531380285235
C         4.05896161074831    8.45142129420177    3.39417929724210
H         3.16920354567415    8.30329469109371    4.00813722380231
H         3.77854914411869    8.28619466683540    2.35175203973553
C         4.57388381788202    9.87316905439939    3.58048323240133
H         3.78905768656741   10.58374734146160    3.31553814178978
H         4.81371395290400   10.00769448448149    4.63549388616663
C         5.81930112541239   10.14338600311906    2.72179915114184
H         5.54398196154382   10.00742260902305    1.67032625300806
C         6.33557617564230   12.01142643623828    4.22528478839028
H         5.33119846091149   12.26240545584944    4.57833606680545
H         6.96640139874653   12.89338586075855    4.29393707051670
H         6.77460599982347   11.25902640213351    4.87467444902990
C         5.52738447758738   12.44006237916003    1.99768317137044
H         4.47698654098492   12.43945041957942    2.32193822828328
H         5.57724654799586   12.06307344344104    0.97346950700839
C         6.04801920443011   13.86973948376930    2.00466208196378
H         5.85481021333147   14.36933968816291    2.94982088997146
H         5.55411612349069   14.42951820977172    1.21449668999154
H         7.12020115976693   13.88464890279621    1.80807916129442
Cl        9.64170530957018   12.30192918867328    3.77961607275387
Cl        8.55764592165423   12.02024595832660   -0.04282293877980
N         8.13786351000925    9.35193887185218    2.24197877857174
N         6.32002342644254   11.53019433198619    2.84063819176977
Zn        8.39428585712342   11.52615617304354    2.11517421270007

