40
CSD_code = LECSET | q = 0 | S = 0 | Stoichiometry = C11H24Br2N2Zn | MND = 4
Br        8.42853576438134    2.47098729720340    6.49043594234770
Br       10.77308502813878    4.63431725858678    3.43158712211992
C         9.00746533804484    5.59445361117388    7.80757903783540
H         9.71947653915224    4.79342353472193    8.00363734965418
H         8.00752790471549    5.18787171209263    7.93979674708138
H         9.18030812366663    6.38418760782058    8.54361786975005
C        10.50999088861980    6.70374232777304    6.33663724111987
H        10.71058735888193    7.00666293495951    5.31041703358201
H        11.27471966646972    5.98636127025163    6.63302310722333
H        10.59114759675355    7.57973985578385    6.98820648514351
C         8.13288693742262    7.01641181663716    5.99491148570428
H         8.56251700594796    7.58773267729664    5.16448732484520
C         7.71527045173508    8.01082340425659    7.08757644650995
H         7.27622513011496    7.47447011435518    7.92977710324856
H         8.59592161357695    8.54851505791733    7.44412874063156
C         6.68160921108684    9.00551319317240    6.57559513355761
H         6.42234260057664    9.70317821681865    7.37330424767661
H         7.09294419535914    9.58334572974316    5.74498460763916
C         5.44668954127903    8.24564329651678    6.11320808680264
H         4.68864631094043    8.93929119283216    5.74627315695889
H         5.01803166779256    7.69303940904838    6.95198505990481
C         5.83604135147428    7.28496207274007    4.99678600778371
H         6.22936719674621    7.87480839472748    4.16775279968647
H         4.94794621053214    6.75553183761571    4.64809640272970
C         6.89237005842884    6.26903973414097    5.45827196493667
H         6.47228159390729    5.68436921788099    6.28520434482876
C         7.50662077681129    5.92440701255846    3.10575435925420
H         8.01313654735700    5.22384321569410    2.44595478580380
H         8.16141693767022    6.78409082119748    3.22503501747963
H         6.57748712287035    6.24086950989223    2.62389366792038
C         6.19884563340521    4.27271963714328    4.26325673611421
H         5.25770487996225    4.74324020499941    3.94957823322823
H         6.04164408388091    3.81736522244119    5.24420425949632
C         6.54817936974063    3.17333282676249    3.26902988599080
H         6.50158557001280    3.52388388975983    2.24162444028005
H         5.84019192966241    2.35682743774107    3.38454945661945
H         7.54648315956884    2.77476332950674    3.45578641912218
N         9.19012336894174    6.07416452457358    6.43358076818106
N         7.25753222713132    5.28936520548296    4.40485599291374
Zn        9.12131310723189    4.27230438618223    5.09721512828973

