63
CSD_code = LEDJEL | q = 0 | S = 0 | Stoichiometry = C31H26CuIN3P | MND = 4
I        -2.06086289085440    1.99896551851789   12.32233169389397
Cu       -1.45294935395768    3.38348531493697   10.36245812048478
P         0.75584740435497    3.34094953415282    9.82206523625582
N        -1.81156101226357    5.39050070771038   10.02465905232095
N        -2.40359732533065    3.22284962366359    8.59649877729954
N        -3.28538218257044    4.31233607651670    6.87326866871676
H        -3.60768023186185    5.07330931561773    6.30112151435192
C        -0.89661318676611    6.08017628277726   12.13833744197233
H        -1.50289348730146    5.30063837547457   12.59569464676836
H        -0.87800437540340    6.95586793019835   12.78097372789744
H         0.11912361253191    5.68907899185270   12.04857325832096
C        -1.42820698721994    6.41183994967937   10.78541395722196
C        -1.50962008438249    7.72001156234383   10.32203694914080
H        -1.21076491809107    8.53703351810536   10.95943242904825
C        -1.97908125989373    7.96114035442291    9.03550746967245
H        -2.03927163670370    8.97095805250214    8.65812801865648
C        -2.36671493425909    6.89620885679064    8.24721575591101
H        -2.72290790497486    7.05104539810320    7.24052571208895
C        -2.28100065607417    5.61015276440154    8.78247142642801
C        -2.65549408147758    4.41148501221899    8.08396691648685
C        -3.45875527663840    2.97459554499075    6.61756689398555
C        -4.03144183662603    2.28562380238768    5.56085847804805
H        -4.46040942872473    2.80338476864643    4.71629311951752
C        -4.03319490207700    0.90680469366590    5.64208858822276
H        -4.47124769429552    0.33346029391370    4.83899283226813
C        -3.49088092221400    0.23246534195083    6.73923916375365
H        -3.52824138336146   -0.84611597075372    6.75798467096385
C        -2.91830616383558    0.90768927696663    7.79576967968062
H        -2.50692405301576    0.39591990952141    8.65085286343248
C        -2.89718912329547    2.29673995421772    7.72509470853122
C         1.03459721150261    1.58085176090224    9.47843337337029
C         0.39398361709569    1.05305611815815    8.35722325565375
H        -0.15399990308483    1.71367076129282    7.69652128450290
C         0.45164629798458   -0.30074845378875    8.09367665195089
H        -0.04649031636967   -0.69957233334534    7.22138973505335
C         1.13302045580618   -1.14401037708179    8.95770214004325
H         1.16842156734731   -2.20492656346408    8.75945340033576
C         1.75573261043826   -0.62712398074467   10.08106278312980
H         2.27585169771623   -1.28510857014924   10.76122540175446
C         1.70722912453074    0.72995987256976   10.34752951725014
H         2.18562848133182    1.12439374776127   11.23234553927275
C         2.02567163437578    3.73544653400412   11.06609261168636
C         1.72678680032327    3.40684508748564   12.38831409735665
H         0.78400917422238    2.93042193573422   12.62090292231709
C         2.63083220708146    3.68895229888032   13.39493742286404
H         2.39496781258722    3.42540331300525   14.41497729153516
C         3.83084821707415    4.31301353153974   13.09238041433886
H         4.53732841138089    4.53737543808168   13.87786393475144
C         4.12417628876076    4.65286243033314   11.78167552062254
H         5.05877921619612    5.14122856987744   11.54552953657285
C         3.22773307850386    4.36774265028011   10.76708832438971
H         3.46395600362785    4.63341021156257    9.74598949282429
C         1.40296355678793    4.18002995987610    8.33658755594142
C         2.08240400644228    3.54550744158331    7.30198031336069
H         2.30035189055551    2.48873548100033    7.36539353312182
C         2.49209898015795    4.27033410473526    6.19707514086156
H         3.02559758027751    3.77247869196755    5.40020768764427
C         2.22693605562058    5.62733556852418    6.10923137942805
H         2.54637785035662    6.18600486746013    5.24185467601754
C         1.55705807356072    6.26763012527069    7.13971866416758
H         1.35385248278799    7.32752377545288    7.08087021203678
C         1.14727450407454    5.54752051425198    8.24500096321097
H         0.63500160754805    6.04625473133827    9.05764345138667

