45
CSD_code = LEDQUH | q = 0 | S = 0 | Stoichiometry = C14H23Cl2N5Ni | MND = 5
C        -0.58870467011377   -0.47349426869538    7.47045740084177
H        -1.54635250812496   -0.09310174292430    7.11560964684206
H        -0.65105349783327   -0.62479539945097    8.54825316936435
H        -0.40643504725219   -1.43525577055727    6.99938074360931
C         3.65050732015545    1.73565679596854    5.69735582956335
H         4.10006405096753    2.60405698318755    6.18721641693922
H         3.48302528386458    1.97055112303680    4.64587535437288
H         4.33078546155809    0.88947282631543    5.76162812859962
C        -0.33648356556471    2.38577202601274    8.43336794764876
H         0.17007138999607    2.49473762429094    9.40197457398524
H        -1.19303542574603    1.72294269770108    8.55809649126810
C        -0.82225578601419    3.76219573248052    7.97309435059721
H        -1.05242936528441    3.73921767814248    6.90348819894129
H        -1.74171052712452    4.01491929039583    8.52951716105295
C        -0.15255626473982    6.11313321480507    7.87575984112702
H        -1.01039827600104    6.45043175288343    8.48316416010211
H        -0.43457929902944    6.15551815477640    6.81922884090422
C         1.04056982956310    7.03960466092910    8.13672928632065
H         0.69104617184245    8.06016876566115    8.29192174522826
H         1.56130576813989    6.69841562785941    9.04090410423443
C         2.00962591998904    9.54942337789486    6.72878632529067
H         0.93852515819655    9.64675333540359    6.55275439120972
H         2.52952786477636   10.24206338458463    6.07304303665028
H         2.22035336541941    9.82998079835268    7.76094816360715
C         4.35898233445891    5.38269510554836    4.96739250815304
H         3.73884580432206    4.66201442032664    4.43242035712746
H         4.98481121219721    4.84429106036094    5.68062634890455
H         4.99486097633198    5.90328847127280    4.25661707076244
C         0.51825006876470    0.45407335659602    7.12026450081642
C         1.65277058835777    0.21322045843793    6.37751468651526
H         1.93536583147431   -0.70455626768294    5.90456163391740
C         2.35980498521079    1.42015103049668    6.36058967380929
C         2.47688744828292    8.16816128080201    6.44201102803083
C         3.44333049505681    7.74017552864246    5.55812272679014
H         4.03581987079677    8.34511143816408    4.90321310884019
C         3.49075742969355    6.34864832868439    5.68699386203751
N         1.69077963696001    2.32851040943559    7.05744946682117
N         0.57085400930141    1.74885596929302    7.51095933464022
N         0.22456089088797    4.74597081037058    8.19249045385769
N         2.60415411222304    5.96562076180322    6.59646155322076
N         1.98785841106776    7.06474048527396    7.05117673886407
Cl        1.00167713574309    4.20410198021170    5.05683086129437
Cl        3.37280999075407    4.10605714156479    8.64679271176431
Ni        2.12643292207879    4.16906092282835    6.90755755831236
H         0.51327249439573    4.70683863851644    9.17159850722374

