64
CSD_code = LEDRIW | q = 0 | S = 0 | Stoichiometry = C30H28Cl2OP2Pt | MND = 4
Pt        2.23086018716379    2.16167421941266    3.04490517728264
Cl        0.58035239292471    0.74865791762508    3.78234287070971
Cl        3.25185988998241    0.55260224486884    1.77274428998598
P         1.25887103057523    3.86318035826896    4.15454461685650
P         3.86216208702322    3.62025694830446    2.44751662722150
O         3.55838703254190    4.72670869795368    5.29358976445562
C         2.57584895098689    5.15478742857786    4.35980778364616
C         3.45685602829081    5.33343292773573    3.10418177686577
H         2.95363925989002    5.91152521811523    2.32752265184649
C         4.66714714543901    6.05457716012893    3.71884723839322
H         5.61252238771484    5.58883236817912    3.44675198015115
H         4.70533317912671    7.10587457386264    3.43732725870600
C         4.37113195453647    5.88545040395077    5.22589747686752
H         5.24722100928596    5.76704986474915    5.86041644707877
C         3.39428549878550    6.99919592118625    5.63542169640163
H         3.73769774248121    7.98690025017487    5.33808564870854
H         3.23980098444666    6.98970068980391    6.71364203984224
C         2.13137785978564    6.53858748667856    4.88676046571408
H         1.28070040140238    6.43789261780399    5.55997307324090
H         1.85309758464383    7.20270750815294    4.07026603930164
C         0.14336826596166    4.75364859941625    3.02735502404962
C         0.26668430338853    4.48537693995144    1.66646115333426
H         0.97120991389736    3.72252044394009    1.33707593340573
C        -0.51731354257221    5.15872404268908    0.74795176169503
H        -0.41752614905460    4.94334055676420   -0.30541799317383
C        -1.43707263138005    6.09911303177263    1.18409125286862
H        -2.05468028148155    6.62290819049455    0.46983158242320
C        -1.57610462097749    6.35763253087180    2.53851333120216
H        -2.30307588139455    7.08065471476041    2.87829737272339
C        -0.79034662234376    5.68980756255599    3.46085332147235
H        -0.91196440643442    5.88379224780486    4.51720047750789
C         0.37596000149144    3.75497504010241    5.72334122830068
C        -0.93977419193420    3.29519626256496    5.67971124543084
H        -1.39425598019332    3.07794003996876    4.72316566523329
C        -1.64072262260015    3.10472759379478    6.85479534704596
H        -2.65916608274689    2.74772092180633    6.82127939316514
C        -1.03300956409599    3.36036870830913    8.07437130555212
H        -1.58249481199019    3.21003406925095    8.99191288056521
C         0.28348207096234    3.78980658745318    8.11944476290954
H         0.76012780149013    3.96875857338373    9.07232199130629
C         0.99687374653741    3.97717199576557    6.94889200156475
H         2.03277208183640    4.28059263181968    6.97864449563396
C         4.30398014137920    3.85118509773579    0.70634363216601
C         3.80048667644109    4.87554774236704   -0.08974800889452
H         3.16818772952476    5.64457799894491    0.33040978687998
C         4.09854084424705    4.91523660578908   -1.44049434067773
H         3.71006868340978    5.71866106239897   -2.04945787135059
C         4.87930089992329    3.92562844820980   -2.01293382360940
H         5.10345053962748    3.95837105855225   -3.06877307486012
C         5.35715648933098    2.88535684442675   -1.23149684393219
H         5.94710027544923    2.09943812979746   -1.67820220713190
C         5.07031519514727    2.84340612105895    0.11893339608912
H         5.41394865795005    2.01876867506023    0.72636720098138
C         5.40911108143329    3.11335261420265    3.24337297327444
C         5.29779639079133    2.26712933201225    4.34230220468722
H         4.30878959072682    1.94835102525596    4.66593500636713
C         6.43323150365883    1.82942840166536    4.99761124190379
H         6.34502621055529    1.16749685788134    5.84586501896287
C         7.68420119782542    2.23180685935970    4.55694353765234
H         8.57285772725992    1.88620980067241    5.06426656864618
C         7.80013102108449    3.06619648843075    3.45647644289553
H         8.77656796095351    3.36921791266894    3.10712236650902
C         6.66779227971118    3.50800602605394    2.79585742220612
H         6.76073550016871    4.14172080667009    1.92306091378566

