53
CSD_code = LEGXEA | q = 0 | S = 0 | Stoichiometry = C25H24ClOPZr | MND = 12
Zr        0.55890450463654    4.25022044416852    3.41753219895220
Cl        2.79732581742543    3.85102536610586    4.03171425937657
P         1.99653424871082    5.34793024738753   -0.69507122349770
O         0.96628416828350    4.87843427499155    1.72918419068973
C         0.61599852215928    1.79447938082380    3.11066190133529
C        -0.05505382282931    2.02766502445520    4.33592827375399
C        -1.29428442563634    2.63270748604769    4.03955715759176
C        -1.37346094962186    2.81467644104828    2.64143381206363
C        -0.20005289229624    2.27596487179390    2.06407470825454
C        -0.62466174612925    5.19557414823166    5.44546709433613
C        -1.23906909856375    5.75718090435071    4.30081990013195
C        -0.28937222591456    6.58633523904680    3.65968554749524
C         0.91422252779835    6.51788735226068    4.39755692289454
C         0.70371386464198    5.65827070083067    5.49989544992027
C         2.26390137296726    3.52093647615379   -0.72061696568125
C         2.03701345710574    2.85879219266268   -1.92311055541185
C         2.20596457144746    1.48869347854259   -2.01470120191033
C         2.61259913663550    0.76921872300457   -0.90387787215977
C         2.83548624550030    1.42265591758291    0.29778455929998
C         2.65399347164238    2.79121645864719    0.40070825322951
C         3.28301206365567    5.80094437963177    0.53891157280378
C         3.02755610452003    6.76842946226027    1.50733950373169
C         4.01753587479012    7.13205471097664    2.40299344218519
C         5.27057979316804    6.54667863582945    2.33614129905403
C         5.54115866216637    5.61246157204354    1.35120856792321
C         4.55771368278383    5.24936792546249    0.45034774289921
C         0.57920012699542    5.23640610944991    0.51580277064681
C        -0.70167221541766    5.46535410142602    0.19651672995650
C        -1.19158842332753    5.85902235046414   -1.15569086531291
H         1.54194484304545    1.24483953195254    2.99727229098507
H         0.26736549607434    1.66911484040136    5.30786756109817
H        -2.10405711020357    2.79888519779179    4.73841327478736
H        -2.24999743487293    3.14322129240878    2.09622230009396
H        -0.01480826786001    2.15603231910839    1.00294730838300
H        -1.12452793116186    4.63399804403129    6.22535884315357
H        -2.29180535233040    5.69299583408061    4.04955532693775
H        -0.48758790571081    7.25025504130303    2.82528679923499
H         1.80813778495454    7.10133887743885    4.22010165895276
H         1.41000267801532    5.47900337082160    6.30219385884764
H         1.73354760938419    3.42899707323412   -2.79039345865069
H         2.02988327895473    0.98407956684902   -2.95364555281366
H         2.75818063113356   -0.29876073247464   -0.97395195874795
H         3.16328688035159    0.86184013206963    1.16119118921070
H         2.83132668346806    3.28950405170426    1.34956393331021
H         2.05422400783612    7.24476931409844    1.54853119294057
H         3.81870351955217    7.88511138143591    3.15312782304749
H         6.03549476854715    6.82330560223502    3.04631673338910
H         6.52142954070047    5.16320773640710    1.28583441244153
H         4.77366616426165    4.52208034754410   -0.32093840054147
H        -1.44977397747288    5.35203313607616    0.98360272004983
H        -1.77308940490209    6.77956192514045   -1.10210748928392
H        -0.35072248232699    6.00957145425376   -1.82993302524835
H        -1.83670643674116    5.08373028640230   -1.57041451612928

