40
CSD_code = LEKFOZ | q = 0 | S = 0 | Stoichiometry = C15H19ClN2NiO2 | MND = 7
Ni        3.99459259377120   13.32033546896157    5.33504340039377
Cl        4.64897569103032   11.99574032921005    3.86253152217086
O         2.26587702886109   10.80401735076714    8.58461814551278
O         0.82550165861786   12.37805223328179    7.89264262164205
N         1.48871571758968   11.91900974002448    5.27004583873578
N         1.42852979844078   13.60925700869333    3.94773422654107
C         2.20869626001619   12.97780958735268    4.84113885544937
C         0.26098014428595   11.90660723384857    4.67054718912631
H        -0.47520290383598   11.15975008343752    4.88381577620531
C         0.22658894827900   12.96736981167967    3.83040107958017
H        -0.54003618015514   13.30843863418152    3.16609683952071
C         3.75688498450908   14.32844786062155    7.12899916816315
H         2.86874872091084   14.44985922187228    7.73204434852617
C         4.22403625250381   15.30041671425630    6.16552871271295
H         3.72778236186026   16.23141131739953    5.94056157384221
C         5.46866677741854   14.88576499888553    5.71942070583784
H         6.13290983495420   15.41572597795477    5.05534418992955
C         5.78205473698701   13.65204741497048    6.39122618853229
H         6.73350680342757   13.14452122701755    6.32035528315614
C         4.77807067542620   13.38414731219809    7.34147502100123
H         4.79857441703309   12.61352844547062    8.09583759559894
C         1.95858803771676   10.99683400949825    6.26290212538412
H         3.05374313204786   10.91957042551860    6.18008404858445
H         1.52132483213407   10.00780538054659    6.10666277623351
C         1.60363533966941   11.49196853047322    7.66660918300241
C         2.05082995931876   11.17906107123271    9.95148860441398
H         0.97744977960169   11.13312077604530   10.16507948475490
H         2.38103149754548   12.21516101077514   10.08404811416864
C         1.83105502612838   14.75545747059497    3.16599550583062
H         2.83750975545851   15.03327163148258    3.51918965108490
H         1.14395017102916   15.58422137353712    3.35911990415211
C         1.88046376013203   14.43450384337484    1.69372734677424
H         1.42495023549188   15.16408651793592    1.03921383856441
C         2.45037114698930   13.34335381658563    1.21795751039256
H         2.93117624190499   12.62729165942293    1.86476849731736
H         2.47771065291356   13.13575981701983    0.16273762472014
C         2.83749394122105   10.23010289438197   10.83412630276323
H         3.89472308456492   10.28108093193346   10.58920616734762
H         2.49639080894773    9.20924103970969   10.68599659995327
H         2.70054827525303   10.50384982784574   11.87597843237936

