70
CSD_code = LEKRUP | q = 0 | S = 0 | Stoichiometry = C31H33Br2N2PPd | MND = 4
Pd        3.80126370687031    2.97818510996442   14.33943576000340
Br        3.10141618477443    0.88673512346371   13.34035482514102
Br        1.57650603531204    3.53832855476399   15.10686021047599
P         4.48388595917102    4.93051438909689   15.24385809461027
N         6.15701930913352    2.76483356317561   12.55670117599909
N         6.44872685756554    1.64249604584004   14.41436219816508
C         5.60240203825255    2.43802628968865   13.73612365645768
C         7.40632252447444    2.18389967504666   12.46840476013182
C         8.39171665083739    2.21173314630739   11.49318816866621
H         8.26421147528913    2.75038970523988   10.56909525639858
C         9.56073637241859    1.51807310460358   11.73970357583075
H        10.34366769150632    1.52293914637862   10.99707990457831
C         9.75002078099136    0.81296298962257   12.92382524704223
H        10.67720151527808    0.28373784019662   13.08136344111461
C         8.77522044581036    0.77335258660138   13.90199032796887
H         8.94076580871074    0.21973474819133   14.81159156775836
C         7.59541893786067    1.46330549664400   13.66584351373054
C         5.40273851489655    3.44504025282146   11.51277655190391
H         4.43472892731913    3.72733605891815   11.98615480133718
C         6.09804363615700    4.71648033713792   11.03734908065875
H         6.38688191445470    5.33504936812804   11.88397848737823
H         5.41723450694825    5.28538924795758   10.40943958550697
H         6.98628520346236    4.48931054863669   10.45516034151725
C         5.10652811468833    2.47394472171319   10.37198254237310
H         6.02509519973783    2.12779919751485    9.90507194826199
H         4.49512127151117    2.96631436944397    9.62091909288402
H         4.55989090885313    1.61203226933889   10.75046979060159
C         6.06154113318999    0.96055026409304   15.64270698637011
H         5.02707344100276    1.30309256423427   15.85854599734159
C         6.95259442995511    1.34943675172069   16.81955644214320
H         7.99076577670668    1.08662147555884   16.63583391877525
H         6.61679257003767    0.82640252365442   17.71082705648850
H         6.89185239567991    2.41858457112497   17.01702701094503
C         6.01493963936294   -0.54790343948191   15.41233128103415
H         5.34830073768279   -0.77259856561361   14.58218127931496
H         5.62990298548381   -1.03922804547529   16.30136909573167
H         7.00018085469520   -0.94801591388260   15.19044172682771
C         3.34154880810448    6.32517696094475   15.03780562260065
C         2.74930203180256    6.44387330085274   13.78161671775448
H         2.96670413794368    5.69779100219605   13.01804910243037
C         1.86787660500426    7.47444109220529   13.52602353720317
H         1.40278688802097    7.56131046207862   12.55544533490133
C         1.56744595249776    8.38555932915837   14.52771582918361
H         0.86911925383771    9.18596868630150   14.33398771843654
C         2.14439080012807    8.26075597593906   15.77977602722167
H         1.89488199756886    8.96200259385713   16.56243828366107
C         3.03364807538805    7.23209939039423   16.04161125363163
H         3.46945789671298    7.12530745259199   17.02480493860209
C         6.07406771778228    5.65347194524842   14.70619580720452
C         6.15942264831733    6.86482789419583   14.02806663300040
H         5.26810819023260    7.45265933856936   13.85853493268183
C         7.38486498484583    7.32007704691613   13.57048431264845
H         7.44210673331709    8.26427874104596   13.04911143582490
C         8.53001588341623    6.56758624165072   13.77037595836753
H         9.48113750342487    6.92072016454820   13.40155001974462
C         8.45299287087627    5.35987707833283   14.44715180486541
H         9.34265042319854    4.76857102136739   14.60783158127434
C         7.23404477371224    4.91016237840978   14.91396586027176
H         7.17289231210663    3.97553858360044   15.45476691389627
C         4.75682170321222    4.72674715402735   17.02705686255715
C         4.20908578629870    3.61184423770619   17.65556357305858
H         3.61175141615336    2.90156894525126   17.08142547027069
C         4.40739315489726    3.41192094588672   19.00981214096956
H         3.97620302986253    2.54934592022333   19.49522569535282
C         5.15711271947836    4.31981686362929   19.73948957338003
H         5.31229600466649    4.16552953918799   20.79689653214490
C         5.71251748172785    5.42635805933146   19.11528604334494
H         6.30000206032547    6.13107949703048   19.68556693646131
C         5.51769972234451    5.63249493215243   17.76220670871451
H         5.96015597670549    6.48835115279881   17.26945613687010

