27
CSD_code = LEKSAX | q = 0 | S = 0 | Stoichiometry = C12H10HgI2N2 | MND = 4
C         7.82080479067114    4.88993453064470    0.66638124194579
C         8.38868615809301    5.34066008572594   -0.52579953050792
H         7.75292864510755    5.68605626275146   -1.32652973132789
C         9.76566140990394    5.33340004420049   -0.66121092007722
H        10.22948422606418    5.67634908940609   -1.57367917472465
C        10.53394778750518    4.87654104858644    0.39722220781796
H        11.61005154409646    4.85036494543962    0.33964361792778
C         9.88705657166030    4.44843257570308    1.54814085300686
H        10.45372586473515    4.08531267304593    2.39588212345274
C         6.37490968759357    4.88621604580194    0.82418809647645
H         5.80319952741883    5.30930999374466   -0.00568180921780
C         4.42947129027479    4.45096718535009    2.02713886767456
C         3.67346121567259    5.56274784511359    1.65006772762991
H         4.16290228453798    6.42200416642475    1.21492656182286
C         2.31537894291204    5.58770781386093    1.90079478889517
H         1.73899729296151    6.45787975475503    1.62472398073494
C         1.69537968228930    4.50873841784446    2.51035643382810
H         0.63385900696071    4.53452282514812    2.70345368960866
C         2.44251459121146    3.40298846328962    2.88713055252665
H         1.96442386019483    2.56295623071196    3.36751358564790
C         3.80336433159071    3.37549175997540    2.66035127163651
H         4.38968208361363    2.51076639403475    2.94078846595864
Hg        7.31568164530147    3.71538084247619    3.77630280884259
I         7.17932777287996    5.99090688786043    5.05028499043685
I         7.57977491557483    1.13443802306974    3.48371716970963
N         8.57281554519618    4.45423097722541    1.68542886990619
N         5.80780932597465    4.39619511779845    1.85336326036717

