30
CSD_code = LEKTAY | q = 0 | S = 0 | Stoichiometry = C13H12Br2HgN2 | MND = 4
Hg        1.46452242427494   10.45346246268366    5.14163173286700
Br        3.20926359581168    9.99441943447068    6.78147611417792
Br       -0.42120339174346   11.58861194602732    4.08831759911442
N         0.83734135466873    8.06099940353556    4.61769852681415
N         2.44485603796246    9.62243729510252    2.98301252591372
C         1.27274629793124    7.59113546288392    3.44072129221838
C         0.97955171244155    6.29443587658225    3.01512265170919
H         1.34516131400719    5.94755934607964    2.06078194172982
C         0.22370163924250    5.47126637777097    3.83035323216165
H        -0.01614005084791    4.46441871013861    3.52322353759871
C        -0.21748904459361    5.96641513204496    5.04692016455547
H        -0.80864531080594    5.36325429811550    5.71677435985230
C         0.11713654245848    7.26830288839976    5.39258795002146
H        -0.20900515905946    7.68981514232643    6.33471388975873
C         2.07172496179469    8.46558351017092    2.59801840578158
H         2.35345915185862    8.06049285328630    1.62339324940298
C         3.16206734791747   10.47909483217881    2.15992547343011
C         2.97602802649716   10.53812914857253    0.77649142672862
H         2.23369208108311    9.91089750178006    0.30528584902488
C         3.68772802736627   11.44823599550730    0.02303776808696
H         3.51996322399430   11.49921904002104   -1.04300812368389
C         4.61072738058819   12.30678705718395    0.61211737269655
C         4.78956775271516   12.24458557482146    1.99209051254771
H         5.49720700394116   12.90740968167663    2.46764917221941
C         4.06830189185811   11.35725671723701    2.76035415601084
H         4.22338434337073   11.30664295382286    3.83097457004142
C         5.36462001568722   13.30207262297088   -0.20970584176011
H         6.35709623621024   13.47188680001205    0.20089953940045
H         4.83502312157526   14.25539210503203   -0.20942284201864
H         5.45631147183171   12.96827982958028   -1.24033620639769

