65
CSD_code = LEKXAC | q = 0 | S = 0 | Stoichiometry = C18H43ClNiP2 | MND = 4
Ni        3.55231752196101    0.00678419164520    7.86570535572415
H         3.42572783317209   -1.01190268434539    8.84162095080054
Cl        3.74524228331891    1.51688550958001    6.41997529568122
P         2.68780192250024   -1.36723836401836    6.40493210989099
P         4.39893361132013    1.29856237277695    9.40982804678367
C         6.49488988426616   -0.48807575450132    9.86813833912467
H         6.00790447969702   -0.95251509860349    9.00683056956475
H         6.87832469894864   -1.27742660825126   10.51307837076846
H         7.33723085577017    0.09801379674772    9.51202867113240
C         5.48376751545979    0.37341794292468   10.62244063042773
H         4.76647075206241   -0.31540822537607   11.08649810449507
C         6.14969240763752    1.18885151648041   11.72226174650834
H         6.95768955469069    1.79862125355875   11.32609259538783
H         6.57868191937402    0.51514653167916   12.46408314620752
H         5.43287926400023    1.83299641237341   12.22705287384908
C         2.35324735243701    0.85255196815581   11.29319431815392
H         2.13575753898345   -0.01214414264819   10.66582618903779
H         1.41606279753433    1.21300138304690   11.71541137054558
H         2.99292852964245    0.53887925043121   12.11467574850844
C         3.00389233009223    1.95255414120485   10.46109554119959
H         3.38487176939707    2.72911699336281   11.13183276193085
C         1.98459764159116    2.55008444064567    9.49261781050734
H         2.40151069690999    3.39322268734287    8.94560403117312
H         1.09191415185392    2.88569450939670   10.01899731414778
H         1.69171027306869    1.78763544733155    8.76363617034244
C         6.60899394409337    2.50659612499286    8.22822299995584
H         7.35382395275012    2.26919290964090    8.98469473005011
H         6.97973208707304    3.34440554305546    7.63972469311122
H         6.49206685946171    1.65319823811228    7.56085433244284
C         5.26569982277310    2.86313598437674    8.86014043813882
H         4.61786438020194    3.22015647119230    8.04970158019757
C         5.41355692749174    3.99339742157903    9.87352345882592
H         4.44820642805365    4.36579012238838   10.20684228896254
H         5.93371400644461    4.82022969294095    9.39018606708342
H         5.99408905629770    3.69837067552804   10.74196335548107
C         0.33991262823710   -1.59266455392212    7.89827732632670
H         0.87340810351573   -0.82369209282251    8.46287426521906
H        -0.22452367187500   -2.20492476158294    8.60012058857335
H        -0.36476711522880   -1.10317503826561    7.23220443318257
C         1.34420745799164   -2.44981661424231    7.13006656348932
H         1.90053667923392   -3.02982695010641    7.87734097571534
C         0.64878245842932   -3.42083666751151    6.18593118048994
H        -0.01592614141541   -2.89809352951957    5.50290259848560
H         0.04386701129368   -4.11893185208852    6.76466883571641
H         1.36918970453774   -3.99721471088876    5.60942670798257
C         0.82312080224748    0.13992705035209    4.99334168096464
H        -0.03768628851772   -0.51646392709732    5.10079868779938
H         0.64214931876852    0.79890679181974    4.14558302458685
H         0.91527254835960    0.75845971898791    5.88565945421832
C         2.10766161617344   -0.65560465281573    4.77436428926402
H         2.89552439506911    0.07107685331112    4.53956166774995
C         1.97585062428356   -1.60275397296022    3.58621012696323
H         2.92909730953117   -2.05268412974904    3.32060575908070
H         1.63532437774787   -1.02671345599760    2.72594134405046
H         1.25290109889477   -2.39269658746761    3.76398084922692
C         5.21113769328054   -1.73605180072869    5.45737237475241
H         4.98098072018902   -1.11095526293434    4.59701418814661
H         6.06340809053941   -2.36737608673064    5.20904691927824
H         5.49587942334384   -1.07823623569403    6.28487341417987
C         4.00611404830855   -2.57629937395372    5.87677065244874
H         3.64375438800630   -3.16390502945251    5.02736671750892
C         4.39638237961682   -3.52392790172048    7.00605901117346
H         4.58393586538815   -2.95973041183421    7.91988791525791
H         5.30740317345226   -4.05936047658730    6.74173605089198
H         3.61910625043119   -4.25921699258165    7.20000039109632

