50
CSD_code = LEKXOP | q = 0 | S = 0 | Stoichiometry = C16H24F8IrP | MND = 8
C         6.19807381151909    3.08343684300369    8.54892108058193
C         5.63988089922741    1.82310116886331    8.10715822309817
C         5.64219008224916    0.93077634642777    9.21287846219546
C         6.07448661175168    1.65928439723889   10.36517848833265
C         6.47320100326630    2.96943040657527    9.93564522672981
C         6.72168304714846    4.13781640407575    7.62412257823575
H         6.96474021274216    5.05178252047543    8.16033727584623
H         6.01414343409438    4.37350523092357    6.83154569208270
H         7.63620618566658    3.77065541694255    7.15342396660429
C         5.42445560489105    1.41237219241463    6.68593239788637
H         6.29774205141388    0.86744852798698    6.32233581100855
H         5.27069217887947    2.27445875949835    6.04239305026272
H         4.56053643815962    0.75704169324202    6.60105934535119
C         5.50137806933874   -0.55005521009129    9.10793834241034
H         4.76684547124118   -0.83240297133711    8.36055599667096
H         5.22246788756859   -1.00057766854828   10.05443252734442
H         6.46707978832896   -0.96209568730696    8.80634267771049
C         6.38358416099571    1.09370282834039   11.71170540005570
H         7.45699676789675    0.91370188667937   11.79867616553872
H         5.86289489434838    0.15413340208023   11.87273192105048
H         6.08764365588590    1.78815213257417   12.49450756166915
C         7.12601901964549    3.97097820766205   10.82842560923892
H         7.32365308616337    4.90378202652176   10.30734850456627
H         8.06842815156321    3.57111050976516   11.20402574675235
H         6.48475693737889    4.18270191884118   11.68239595970306
C         2.45121317168462    1.73388464862678   10.21667385508456
C         1.76239240895836    0.95372881732155    9.09470453074782
C         2.62568506050423    0.81025981663461   11.42698512569756
C         2.79303236116378    4.30505105366952    6.67117205849821
H         2.17108843434012    3.44986091688147    6.42488710233138
H         3.75794394794877    4.18950772750300    6.18671359725224
H         2.31796950077180    5.21363808281476    6.30671733107422
C         3.85503814975806    6.00196106935139    8.71650999282102
H         3.27132393025968    6.80507568519091    8.27018408877801
H         4.84272635213762    5.98189166963210    8.26933470558208
H         3.95195251160496    6.16791434811358    9.78648113950244
C         1.32264126792784    4.89405451781789    9.02426477617301
H         1.05222898869867    5.81822119623340    8.51512017299568
H         1.33949197076354    5.04910186916525   10.09997684856049
H         0.59861266492884    4.12011853946641    8.79193951662556
F         3.78240206252063    3.98474623563529   11.11584481518119
F         1.46255455441876    2.62989853059544   10.63445709463073
F         1.31548945084150    1.79714457152680    8.14303167636801
F         2.58644002808948    0.10806688093201    8.45926509550113
F         0.70257248009393    0.23104482501572    9.47157475006963
F         3.18385304005759   -0.36695363066460   11.08736807556706
F         1.46945679083515    0.50922509977137   12.02969201679185
F         3.41359247074856    1.33437637206236   12.36607754614550
P         2.99647642682490    4.40150951287032    8.49175963256769
Ir        4.25864252275554    2.75083036098318    9.61074644452613

