45
CSD_code = LEKYUV | q = 1 | S = 0 | Stoichiometry = C12H24ClNS6Tc(1+) | MND = 6
Tc        2.38855519267446    1.87567292212833   11.44256009726562
Cl        0.39338470314533    1.55455552706803   12.43368448192586
S         1.10139224141356    2.20047355154073    9.25563701957115
S         1.97535089004139    4.41835146764913   11.66031443690245
S         3.38070110062051    1.66493511326917   13.76127054164211
S         2.75495845035547   -0.63401788784208   11.45578318812108
S         1.76981773503448   -0.64172758534831    8.26474912184507
S         4.25476672088739    4.58153765216610   13.78900687258522
N         3.86291671340224    2.18756662778605   10.67046293650037
C         0.11205983859416    3.66712691765361    9.74838974388978
C         1.04775375344349    4.79304121497883   10.11326153117537
C         3.52780396455847    5.29527573923065   11.20822061945524
C         4.21355734903106    5.81564718024876   12.45463924416009
C         5.41174627432715    3.35984791461217   13.07014851691762
C         5.17838934329307    2.02881550051238   13.74217306831485
C         3.50013008413980   -0.15116358761250   14.05581518783762
C         2.47615076035269   -0.91276585478916   13.25030969426064
C         1.29040827530478   -1.56788124981843   10.87307645298673
C         1.48355959670850   -2.01005115799972    9.43696433054332
C         0.07024888724793   -0.01003258457215    8.04542102964883
C        -0.29726189859009    1.02964639026813    9.08715308378772
H        -0.49854139271824    3.94512016808952    8.88838100750336
H        -0.53216288228964    3.39295113323095   10.58457156308570
H         0.49277700637907    5.71403784155686   10.29717758762158
H         1.77593549128451    4.94214167636002    9.31647260194906
H         3.25632860573383    6.12864179669721   10.56203676849504
H         4.13665652152897    4.57640006828782   10.65840231569018
H         6.43452630380460    3.70195566305085   13.22403894879585
H         5.19007487896709    3.25514322781550   12.00576384186469
H         3.66387382151950    6.65458541420918   12.88052477080877
H         5.23351652445756    6.12906738603623   12.23482822237161
H         5.48978727868791    2.04350617269932   14.78682471820934
H         5.68976989135210    1.23903967908595   13.19449574369281
H         3.33601625364342   -0.30565796036727   15.12334135955757
H         4.50726851428308   -0.46854844970851   13.78923884155062
H         1.46165658436773   -0.59286688826491   13.49217548727498
H         2.57557102210143   -1.98441075022854   13.42910537851917
H         0.40605154410183   -0.94756126223133   11.00915892523372
H         1.20964387716641   -2.44585107548998   11.51619397901751
H         0.62122344653889   -2.58205447700390    9.09381946508701
H         2.37558974307535   -2.63036821278247    9.35474216350343
H         0.07344049625295    0.44257810555559    7.05444950420149
H        -0.62584824919450   -0.84777188758701    8.05201533177181
H        -0.50916508134978    0.60190261914268   10.06602851810730
H        -1.16318017568234    1.60656620071330    8.76117175673962

