33
CSD_code = LETTEL | q = 0 | S = 0 | Stoichiometry = C10H16I2N4Pd | MND = 4
I        -0.99705567875329    4.29307757651050    5.97479119040504
Pd        1.48831901454960    4.29272299072560    6.74968030300168
C         2.09561053459521    4.29298752347740    4.84055883215907
N         2.35141128800092    3.21921762282221    4.07742340182202
C         2.77041563825759    3.61607434658591    2.83398002401971
H         3.02814181022268    2.91668501751487    2.06577260248573
C         2.20092235222464    1.86512433059901    4.53819514830506
H         3.17013566773716    1.36254950895480    4.58443311979930
H         1.53259526505945    1.30678747196308    3.88001825688579
H         1.76327111403150    1.89725727051847    5.55089653615193
I         3.97307346842916    4.29300965374333    7.52598166849590
C         0.88057353523480    4.29299076073876    8.65881203634029
N         2.35161338090586    5.36678970873782    4.07752247598586
N         0.62415855244900    3.21922940268865    9.42182802165609
N         0.62398391606587    5.36678315264355    9.42173458000820
C         2.77055934856004    4.96997398625684    2.83404621029055
C         0.20435943097492    3.61608017813400   10.66500763721505
C         0.20422980098367    4.96996546565507   10.66494078628906
H         3.02836549545006    5.66939269882648    2.06587934493634
H        -0.05378887403702    2.91670275512864   11.43309673611363
H        -0.05404080552919    5.66935927393170   11.43297132738224
C         2.20134577575947    6.72086643445460    4.53840533636307
C         0.77436389771727    1.86513319143620    8.96103277360418
C         0.77394232872896    6.72086813897070    8.96082767248393
H         3.17064032216178    7.22329695372663    4.58460006303582
H        -0.19540977861307    1.36414283642907    8.91047508334098
H        -0.19593140772406    7.22165948326599    8.91022105425553
H         1.53305799434686    7.27934301274253    3.88030266409039
H         1.43890484957655    1.30544516693589    9.62167019917038
H         1.43835269069400    7.28073796606770    9.62143591397888
H         1.76375497584702    6.68873562950564    5.55114281002573
H         1.21625830633015    1.89697890108100    7.95025670844706
H         1.21586579032418    6.68903158943209    7.95005948215737

