53
CSD_code = LETXUG | q = 0 | S = 0 | Stoichiometry = C23H27ClIrN | MND = 8
C         1.09637931493614    5.10284689145760    2.74687942106917
C         1.49142895205894    6.42732735833260    2.48753238079370
H         1.24217735865741    6.88010039796274    1.53998541521965
C         2.22430225389310    7.13089398611454    3.39996305112656
H         2.56102371216704    8.13392672134262    3.17683649096727
C         2.52488842636353    6.58953275564685    4.67063813898971
C         3.18187104202134    7.36083176846085    5.64835374931147
H         3.49370487141281    8.36305921170238    5.39032949628385
C         3.40193487750481    6.86571859102502    6.90447699807362
H         3.90503040647576    7.46225668054560    7.65124051199999
C         2.93465445398569    5.58899765020951    7.23441589602168
H         3.05588818496388    5.22398172484056    8.24423788034435
C         2.31474620620695    4.80603452622381    6.29514768002836
H         1.91634348982577    3.85005534609446    6.59257769477872
C         2.13364989284161    5.25827235977666    4.97345924374193
C         1.51707053188575    4.49152992123923    3.93723215829460
C         1.30354135438449    3.06557093952872    3.91317770989596
C         2.07287252606614    2.09447312896849    4.75203355965045
H         1.44564897454005    1.65983443235388    5.53111042074790
H         2.92750067914938    2.58174617078314    5.20880989814066
H         2.43756314560404    1.28381390395570    4.12263886518960
C         0.27647265973855    1.25101548433383    2.76113399663532
H         1.15903743350012    0.79750680227082    2.30057374815299
H        -0.56415510399835    1.11271053958851    2.08673982366362
H         0.06166641473020    0.73888139503176    3.70195941633347
C        -2.18876903700094    4.34512764892346    1.53096755844458
C        -2.06557523324415    3.23323096802743    0.60988503119785
C        -1.26110869141280    3.64304849406962   -0.45165195850396
C        -0.88619435262073    5.03133284794452   -0.23181841286290
C        -1.56353117730378    5.48652662458093    0.93194344759896
C        -3.14075274305718    4.40113696054718    2.68437122164685
H        -4.14940212337561    4.61681118720082    2.32498424837074
H        -2.85317776307650    5.18301950684315    3.38341019358159
H        -3.16991405176149    3.45478022069017    3.22081565619252
C        -2.79293692766136    1.93270042411745    0.74300453129544
H        -2.93603299885538    1.66547057725756    1.78895429007047
H        -2.25841755427543    1.12420251249166    0.24644144473539
H        -3.78096132873482    2.01319240322974    0.28393681393399
C        -0.87654540898650    2.87111609662244   -1.67018421669895
H        -1.25642416360311    3.36805162794699   -2.56382579449240
H        -1.27456478176650    1.85982576960957   -1.63967829442409
H         0.20896850618274    2.81261344018273   -1.75314132942293
C        -0.20904857837710    5.86773844063416   -1.27299098214538
H         0.67522461561181    5.35952864233391   -1.65273175104070
H         0.09711771489827    6.83055888165765   -0.87078103801697
H        -0.88721332769971    6.04447353152297   -2.11062554132537
C        -1.73433851132793    6.89884049901169    1.39908293168328
H        -1.10122171695684    7.57746332385286    0.83453429265522
H        -1.49323085598354    7.00422449645419    2.45560763046225
H        -2.77276643054534    7.20276715223311    1.25508650914285
Cl        2.00627135689860    3.28036614844754    0.50233166955501
Ir        0.00112949536013    3.97644017739266    1.49905606220872
N         0.49337400980712    2.66409270838271    2.97163214073634

