47
CSD_code = LEVHAW | q = 0 | S = 0 | Stoichiometry = C14H24Cl2N4NiS2 | MND = 4
Ni        9.54239691171741    6.91115762659531   10.23823083234744
Cl       10.52123147340594    7.28832207143151   11.99549765672169
S         7.94377160261056    5.32595888231205   11.26621072744083
N         7.67715437098303    4.47362949308557    8.73135589920816
N         7.22636259626502    2.90754950700622   10.18445610946094
C         7.61596712519589    4.20222215482766   10.04504764021658
C         7.33176683988758    3.36213642146312    8.02394590675969
C         7.04866164351049    2.38956138358933    8.91989522884649
C         7.03097411587514    2.19483202350410   11.45144380368146
C         5.93279344145901    2.89996404988436   12.25005883478770
C         8.35461683750310    2.19587861128965   12.22055643460298
C         6.60642043333729    0.75058424089236   11.18251362962855
H         7.95415052839692    5.41527440948212    8.38490884353388
H         7.31660828022953    3.34786311911040    6.95488485066179
H         6.73585389638391    1.38403866241768    8.74418881039399
H         5.76097713216504    2.37404366895132   13.18439024202959
H         6.22428033602912    3.92110648108399   12.47433721256619
H         5.00520966169524    2.91695221558566   11.68253308439411
H         8.23653976821260    1.66056429530221   13.15761656066686
H         9.13393801206063    1.71031752208281   11.63669832109226
H         8.66236437002868    3.21367806575351   12.43869427622147
H         5.66007133686754    0.70989957305554   10.64889885171923
H         7.36451673973143    0.21127447292183   10.61907125894252
H         6.47461729040773    0.24501082366098   12.13525842448362
Cl        8.56342077980375    7.28962378139892    8.48192007114290
S        11.14109513211144    5.32534110563738    9.20844583194016
N        11.40887991349664    4.47319213548881   11.74309348203623
N        11.86003827648877    2.90711232128656   10.29011880516054
C        11.46990556753980    4.20163603564083   10.42947829002673
C        11.75487679423099    3.36200186202426   12.45058624596601
C        12.03821149543761    2.38938356452695   11.55474034979476
C        12.05558693524210    2.19419980483146    9.02328416139118
C        13.15363080458034    2.89946053581896    8.22459738825652
C        10.73202529978765    2.19493178094783    8.25404015009244
C        12.48032880287034    0.75005208939786    9.29250933584593
H        11.13159765043427    5.41504748161576   12.08956723427592
H        11.77022711434893    3.34798513373716   13.51964807651796
H        12.35151503969908    1.38403884561254   11.73053587997203
H        13.32544612677723    2.37353169804460    7.29026551762125
H        12.86198138686901    3.92058461337777    8.00035632582166
H        14.08125935987585    2.91652433646853    8.79205546150447
H        10.85029449749964    1.65942087201745    7.31711618089108
H         9.95271681104228    1.70937456165621    8.83791818515551
H        10.42417502653820    3.21265712915484    8.03566455796179
H        13.42671615459649    0.70961348258740    9.82607342663418
H        11.72231775552850    0.21086153370784    9.85618353723208
H        12.61210853124251    0.24420551973008    8.33990806435055

