45
CSD_code = LEXJAA | q = 0 | S = 0 | Stoichiometry = C16H22Cl3N2SiTa | MND = 7
Ta        4.47304191548469    1.64415610773798   -3.46199942379267
Cl        4.18717018272905    3.83463436458188   -4.20246405862603
Cl        6.46451391803217    1.50265616255766   -4.72328741015753
Cl        5.05986400733332   -0.16273966806500   -2.15076210805688
Si        0.70777678981143    1.10644505445093   -4.35931372747930
N         6.11272898258950    2.80561219959040   -1.89682502133874
N         2.96549026085289    2.12427012440818   -1.79666659306326
C        -0.05377581946426   -0.14637066153096   -3.13121959125824
C         0.23897407877713    2.89280471600396   -3.86965651881385
C         0.07971397157480    0.72525632454460   -6.12410480097977
C         2.57645661233570    0.96209623312514   -4.36792177727738
C         3.51786299630399    0.54774652541697   -5.12893882584559
C         3.88406373665277   -0.16466184006745   -6.36374877899003
C         6.96080433693144    3.69333767962749   -2.40138517019768
C         7.96757807718129    4.27778891522574   -1.65020698869069
C         8.09713823325707    3.92141925007857   -0.31788767199612
C         7.20761219319976    2.99703612382814    0.20902222874197
C         6.23384654971915    2.46589703307278   -0.61871216565909
C         2.66759247090472    3.38305634250523   -1.45984815718860
C         1.88364637318942    3.71480035393598   -0.37244317877268
C         1.36736577415893    2.70224875541984    0.42440347318956
C         1.66814511484011    1.39242726901336    0.07670658082613
C         2.45736506328589    1.15312473809745   -1.03081580515356
H         0.07414125129255    0.17524336741225   -2.10234864238621
H        -1.11830644486233   -0.26060825597458   -3.31134153684552
H         0.40240151413098   -1.12647145878645   -3.22957425401156
H         0.15346684319785    3.00161597191428   -2.79257761980612
H         0.99694074092812    3.59237701686982   -4.20961640010180
H        -0.70886456158210    3.19265684103806   -4.30599638542653
H        -0.99676896446940    0.85252039039741   -6.18786538715744
H         0.53418667141464    1.38624715181259   -6.85528763921922
H         0.30654357830652   -0.29596563217296   -6.41323351254985
H         4.20769832183005   -1.17625864452415   -6.11611856495060
H         3.03791058140360   -0.21515777601459   -7.04825788984713
H         4.71923094412620    0.34371791897216   -6.84505172010232
H         6.82699702803850    3.93844970493655   -3.44597583105893
H         8.63622560391259    4.99034564535024   -2.10600756417702
H         8.87486432887330    4.35030641712110    0.29632855497475
H         7.27053381574183    2.68594069283209    1.23981114269260
H         5.52952937105066    1.72961130970626   -0.25359551081017
H         3.07351615826709    4.14596697606435   -2.10771091668671
H         1.67922195950584    4.75159538350412   -0.15680583176329
H         0.74999348141228    2.92473347308127    1.28073675931581
H         1.29097689954769    0.56332016886412    0.65448259086506
H         2.70518505823761    0.14607123404151   -1.33041835038019

