47
CSD_code = LEXRUC | q = 0 | S = 0 | Stoichiometry = C24H16Cl2N4W | MND = 6
W        -0.48696816683114    3.77156180237546   13.97637080949991
Cl        1.16075811409757    3.79091884950687   15.64399551713931
Cl        0.31444885085996    2.12509444617093   12.50763206450226
N         0.59251562580483    5.19853961198460   12.98961585940392
N        -1.16626519324346    5.48038103617296   14.85805223360112
N        -2.22560384631101    3.67200488697902   12.92187455294869
N        -1.54034008602489    2.36482839403317   15.02550534982676
C         1.47668786254346    5.07169158224173   11.97741664335282
H         1.53035917857969    4.09046878649365   11.51804999032475
C         2.28619753705294    6.09284037622260   11.53307009226491
H         2.97705754458118    5.90130671171645   10.72718736432742
C         2.22125417277445    7.35855626012350   12.11648955774313
H         2.85648835473692    8.16212463440104   11.77850482804094
C         1.30842673137160    7.55796989939417   13.14472486753515
C         1.11108066441297    8.80220635817387   13.81810245649649
H         1.73126979879204    9.63559581676485   13.52136066167097
C         0.17977891824729    8.94805844915722   14.79011105551994
H         0.04100586002522    9.89929752665483   15.28269144525998
C        -0.65343559206105    7.86065004320042   15.19212751843076
C        -1.65458809579056    7.94151250162652   16.15347388142481
H        -1.84917122386491    8.86978277844065   16.66706440977948
C        -2.40098002414846    6.79627549791880   16.43600423037891
H        -3.18379683359339    6.82747817119681   17.17722464125425
C        -2.13343654282509    5.61297480776282   15.78390409440959
H        -2.69985082917201    4.71375868760148   16.00887152912547
C        -0.44457785980884    6.60984895342351   14.55883616941638
C         0.51459803346888    6.45575906432390   13.55386471425512
C        -2.55055738747633    4.36787222498519   11.81591043773404
H        -1.83244583366616    5.12134522586705   11.50388105026919
C        -3.70645523012616    4.15241733837653   11.09858048303138
H        -3.89724838180313    4.73932283701031   10.21421515207537
C        -4.62116693059467    3.17976454966892   11.50613677681273
H        -5.53027617465532    3.00713059272984   10.95203219115239
C        -4.33130365090038    2.43275157161485   12.64265079319300
C        -5.16310017548798    1.40392932760310   13.17872452270997
H        -6.08896746333766    1.18524022685016   12.66720702325801
C        -4.81102603507370    0.71904896761786   14.29283159332919
H        -5.45185740606261   -0.05659663611244   14.68642331131638
C        -3.59071260799796    0.98353047329508   14.98631783281840
C        -3.17528983191909    0.31478691929642   16.13141185732723
H        -3.77586451681869   -0.47083389566071   16.56156948112024
C        -1.96010554642470    0.69074298563510   16.70392266964687
H        -1.60405857640588    0.19712997312992   17.59443928888718
C        -1.19648645975417    1.69002238633687   16.14349527786258
H        -0.25480722661164    1.97755328075318   16.59791538242174
C        -2.74640657529093    1.99635789933726   14.46434529643092
C        -3.11797694327284    2.70769781758970   13.32096304066877

