53
CSD_code = LICQAS | q = 0 | S = 0 | Stoichiometry = C20H28Cl2N2Pd | MND = 4
Pd        9.67192026961152    7.55266841137797   15.84494585024007
Cl       11.11578827718441    7.42260161265743   17.55253149847307
Cl       10.45611923153207    5.68788626810803   14.88221192579896
N         8.67345948812966    9.21316707034589   16.71836864978415
H         9.36821702942918    9.95019448207075   16.58749442142814
N         8.35149556437184    7.95128883832131   14.22688165300428
H         7.60812778547480    7.27172796566349   14.39407825539187
C         7.48416075460585    9.53093066293557   15.90690008643674
H         6.68395784294469    8.84373649912676   16.20158441236828
C         7.80160818622258    9.30659727583119   14.41351792054288
H         8.56837204000388   10.02634572075308   14.10808254328362
C         7.01314245958770   10.96074861735065   16.18165798343247
H         6.91908265120840   11.11274776993019   17.25531213606056
H         6.04200866501894   11.14475844787893   15.73198648443958
H         7.72118500166486   11.68580139172606   15.78313482815367
C         6.56820878643882    9.51149118581402   13.53078991341684
H         6.79678627963395    9.20849971660376   12.51065732914586
H         6.27147929186130   10.55583751351235   13.51087428875720
H         5.72838006893900    8.92059137740671   13.89334323235305
C         8.43784635236348    9.07828686779506   18.12813548719685
C         8.98053101450045   10.03623712541532   18.99530901619702
C         8.71634545123734    9.94858892570896   20.35332770469516
H         9.13432781955374   10.68624930892288   21.02173930718203
C         7.93518507305877    8.92685908690040   20.85764880899152
H         7.72615722113963    8.87318686540528   21.91507682222383
C         7.46105326817029    7.94994652394995   20.00556628878737
H         6.89925125629706    7.11932925521793   20.40672438473820
C         7.71148998980460    7.99401787531240   18.63948000550312
C         9.89795453867184   11.11407447903246   18.49026305667712
H        10.77932043746686   10.66145652699103   18.03199733829302
H        10.23660706724491   11.72727767235297   19.32094158501197
H         9.41345059009673   11.77242346914976   17.76804463167053
C         7.27117650329385    6.82623137631805   17.80039826698565
H         6.39917511728449    7.05291653990612   17.18359872081922
H         7.00251529578849    5.99768682017748   18.45106184542194
H         8.10707438324631    6.48373545104018   17.15051644388272
C         8.90768806834325    7.67926848906160   12.93255729379640
C        10.08443939287928    8.30654431011785   12.50237235866378
C        10.54421363554396    8.04115981037455   11.21815387726533
H        11.44924421006061    8.52270393294622   10.87821628398158
C         9.88573668506427    7.16088300538838   10.38354958484103
H        10.26061396986438    6.97126983427728    9.38959449733185
C         8.76869655579352    6.49161866610784   10.84516110391310
H         8.27877842132527    5.76400397750108   10.21588262709436
C         8.27060253988818    6.73545639430756   12.11531258308641
C         7.09829810457199    5.93811101563762   12.61457993899021
H         7.39396139101326    5.35276106261580   13.48725331047685
H         6.77337043363036    5.24191057149646   11.84632324204521
H         6.24543669016578    6.56723399037059   12.87337981968357
C        10.92431634644007    9.18376474143945   13.38885192139650
H        10.52904210610826   10.19856661916329   13.46855966583103
H        11.92653985945011    9.25685315285372   12.97371741614397
H        11.01486053677356    8.73916542933195   14.40465134867400

