67
CSD_code = LIHDIR | q = 0 | S = 0 | Stoichiometry = C30H33ClN2Pd | MND = 5
Pd        6.04859922173959   -0.52233085238922   13.00089033920891
Cl        7.46632476275263   -2.09435313308978   12.08135949057748
N         6.10238249754798    1.50602797574501   10.74956102058133
C         5.78102108669653    0.26731039818382   11.17025546212918
N         5.37294675425011   -0.40018919305344   10.07656469625128
C         5.88985032194634    1.61681321605181    9.39802977942188
H         6.09203185806317    2.51781763163926    8.85660877562933
C         5.43488285261997    0.41441393547795    8.97508884601835
H         5.13255148422252    0.08880277462693    8.00095698687876
C         6.48759052301929    2.55603385939542   11.62655960987577
C         7.69973279737964    2.48205245114066   12.31898504472863
C         8.03139637911993    3.52450618266993   13.17494054648091
H         8.96715845812771    3.47817789735297   13.71351927188147
C         7.19357143790150    4.61321423002806   13.36114209928959
C         5.98577383242622    4.64726115887269   12.67791247287931
H         5.31394981478085    5.47996651534086   12.82944274666914
C         5.61297427292018    3.62886021378107   11.81507272608221
C         8.61907799269265    1.30976729462382   12.17174370796336
H         8.25926603423152    0.46196258687171   12.78731452451549
H         9.62199103003208    1.56466891956863   12.50505210160873
H         8.66491209958539    0.96274723597820   11.14000967903785
C         7.58489335936741    5.73639329556949   14.27166327606643
H         8.28494729901546    5.39624020018681   15.03066694968320
H         6.71140078272809    6.16189925674489   14.76041328137837
H         8.06718256443387    6.52800220386201   13.69737206715245
C         4.28024938914169    3.66828120183718   11.12767363660548
H         3.62327647378820    4.37940240640988   11.62179027495355
H         3.80915636083770    2.68650300371936   11.14703478901260
H         4.38456164344517    3.97285320851886   10.08661991834927
C         4.97636351675028   -1.76648345935438   10.09369415807095
C         3.84425735177733   -2.13605700257993   10.82232220263743
C         3.49771186976856   -3.47905280869842   10.87673525762428
H         2.62968911167272   -3.77310611570034   11.45037897435577
C         4.24551767772975   -4.44559871406248   10.22436586162203
C         5.35594584320501   -4.04644455228193    9.49378678008308
H         5.95316993917019   -4.79410305484399    8.99268251231234
C         5.74445168593231   -2.71913476665852    9.41934989890140
C         3.00684205556351   -1.11393990281480   11.53879735857369
H         2.81934520250090   -0.24744695318852   10.90426650956512
H         3.52753057588499   -0.76648931270777   12.44458140346983
H         2.05307382446231   -1.54531640752531   11.83327021683851
C         3.88872811508636   -5.89702974673765   10.32338704998031
H         2.88850927367414   -6.02853824160829   10.72900819696481
H         4.59650984259172   -6.40447621043020   10.97872947880124
H         3.93945320780885   -6.37423803021961    9.34658567300334
C         7.00824090900801   -2.33937145200209    8.71436795079920
H         7.43657800756275   -3.20280179660646    8.21364415703161
H         7.71745409363426   -1.98651104808942    9.46402395930049
H         6.85485419382137   -1.55003971439036    7.98164895910214
C         5.18535038783324    0.87050319677501   14.33869203225292
H         6.03725396279298    1.51224210403609   14.57330330821305
H         4.25385129709713    1.41136457119691   14.21063095804014
C         5.14274653209682   -0.42630264440627   14.87880342532013
H         4.18012772304166   -0.93108638918255   14.98298549223865
C         6.32494724945150   -1.18106961797516   14.99914825285301
H         7.23545532816949   -0.68698968658432   15.35766424359001
C         6.22676430030135   -2.62816595731193   15.21867471817012
C         5.35745722417438   -3.37866321560928   14.41933800568969
H         4.80241395233675   -2.88795923371770   13.61528496438314
C         5.25179581972844   -4.74391240568161   14.58787626091942
H         4.58899604375221   -5.31349847121870   13.95194895223732
C         6.00598447100320   -5.38602040205628   15.55795973240533
H         5.92482574517805   -6.45547610123665   15.68840288482023
C         6.88009063318281   -4.65532555594826   16.34463313558041
H         7.48114991578643   -5.15495221707237   17.09122827496131
C         6.99517679620275   -3.28811888028340   16.17457884857363
H         7.68683293540689   -2.72279587884325   16.78457582982410

