25
CSD_code = LIHMAT | q = 0 | S = 0 | Stoichiometry = C6H12Cl2N4Pd | MND = 4
Pd        6.87958590712148    2.94765370402461   14.60443259885034
Cl        7.38588814388213    5.16307529014120   14.28765571787632
N         5.20829995687032    3.05541171656419   13.70723967648473
N         3.09122144907171    2.14335150762570   12.87876485999008
C         4.19784814602921    2.64679893078054   13.31226498524113
C         2.83587998532276    0.73569360280378   13.10920265997530
H         2.68985090157520    0.22282172001814   12.15566966714099
H         1.93958976830742    0.61270923938998   13.72204436324321
H         3.68748290324963    0.29564451710192   13.62754299868771
C         2.07943962149858    2.93129184961909   12.21627856740677
H         1.15186748126377    2.91834891477728   12.79541936516348
H         1.87849472205116    2.52105515517481   11.22312402958400
H         2.41920906038780    3.95966283538435   12.11350720350231
Cl        6.37247209708474    0.73241364102565   14.92031152199561
N         8.55058390662020    2.84027115734987   15.50238237980056
N        10.66578863539425    3.75546703412019   16.33203023027730
C         9.56012109788243    3.25039490983287   15.89807853906456
C        10.91898809617411    5.16353526786406   16.10179094618698
H        11.06175678424082    5.67713836682160   17.05544385225449
H        11.81652168462133    5.28785505050966   15.49107581283923
H        10.06779937087447    5.60175592435161   15.58119449244205
C        11.67685718655365    2.96990427310421   16.99835703541532
H        12.60631756496512    2.98479365328170   16.42233917418589
H        11.87358514526424    3.38073016671264   17.99213713930385
H        11.33895038369944    1.94082157162091   17.10011218308744

