50
CSD_code = LIPMAY | q = 0 | S = 0 | Stoichiometry = C19H25Cl2N3Ru | MND = 6
Ru        6.49113041709055    3.66139269082303    3.47304255999280
Cl        4.79012631777453    2.48030453819014    2.23931907772570
Cl        6.91274673545851    1.67647088058924    4.68237861650607
N         4.85834352003381    4.44915285712668    4.64941241341773
N         5.99602898256946    5.09400671118116    2.32108379493972
N         7.95652848109684    3.30029613595089    1.91780410674683
C         7.76439174165005    4.63146179650078    4.41004149023330
C         8.63047756299947    5.33717496608230    5.08407604656079
C         9.25261497936403    4.93701182629672    6.34416085706847
C         8.99579930248050    3.67620263758420    6.88763459369163
C         9.57394329158372    3.31015997120417    8.08623822054358
C        10.41277787934462    4.18609543562198    8.75905376183758
C        10.67400839807231    5.43545136240918    8.22220586999267
C        10.09936865868990    5.81147330965103    7.02239611268784
C         5.24077042468496    5.45395149642298    5.64298504136128
C         4.12639220095082    3.37959524952277    5.32961661282769
C         4.00189438515612    5.09276383752309    3.62661352464133
C         4.80593910132801    5.66937364858636    2.49220093945941
C         4.36695567972051    6.63619111826750    1.60247187312165
C         5.17056844827127    6.95877220201749    0.51500050253924
C         6.39056297622581    6.31576563202666    0.34202430688924
C         6.78540903697534    5.38035758501728    1.28377912919888
C         8.10123799909611    4.64257429156085    1.30907182182701
C         7.50155085619617    2.35791654547833    0.89509439048474
C         9.24102758669389    2.81941994640440    2.42923185973765
H         8.91860852744634    6.31853665518348    4.71196415947957
H         8.34799121498527    2.99378328658028    6.35463352926642
H         9.36975268635117    2.33306988844440    8.49825744397457
H        10.86302617758819    3.89564063873920    9.69705131691916
H        11.32904656492740    6.12183544008168    8.74022943750913
H        10.30698909269408    6.78995499166102    6.60970690242600
H         4.35351552983280    5.82460814458395    6.17214763481522
H         5.73973602719515    6.29209497937360    5.15631861270047
H         5.92411135397431    5.01079632390906    6.36622818303639
H         4.77955314756848    2.92873493132752    6.07821773324451
H         3.85324687545457    2.60746172866812    4.61005034836147
H         3.22151045998696    3.76431349406619    5.81531205084732
H         3.38032843258736    4.30739183431200    3.17694091196707
H         3.34439745645102    5.84574851235588    4.08108857694771
H         3.40937396443543    7.11216183166259    1.74240913829344
H         4.84191290445396    7.69607867908935   -0.20020008547161
H         7.01725331033773    6.53691613402231   -0.50749388109830
H         8.53541760743678    4.57073323848567    0.30247358846023
H         8.78567774733920    5.22169345659522    1.94374156537723
H         6.59154551808947    2.72240564325448    0.41926883982308
H         7.28391360995998    1.39772257543647    1.36310371703109
H         8.27525676102878    2.21767176776393    0.12909572562240
H         9.63413561966012    3.51133727465815    3.17273421235489
H         9.96830928586465    2.69904326171026    1.61737006347313
H         9.07929516084223    1.85832861599974    2.91881275060339

