69
CSD_code = LIPSAG | q = 0 | S = 0 | Stoichiometry = C30H26Cl4N2O4P2Pd | MND = 4
Pd       -1.78486747024404    3.12429178409428    3.95540185325216
Cl       -0.88106053561989    1.60597240986554    2.52862000029768
Cl       -5.87811979600183    3.32469669515519    9.41208288082817
P        -2.78150025990048    4.50161003879171    5.37805038738719
O        -2.23859597466157    6.04212060907160    5.38719752925708
O        -1.42775615292578    4.17642903583221    8.88254569831589
N        -2.77845067182483    4.26561257018845    7.06493800288735
C        -1.59798686702106    4.52252690960666    7.73580585301258
C        -0.59329488051412    5.32335040243558    6.98582415042008
C         0.71053371187678    5.39673188194137    7.47185649590765
H         0.96835245480139    4.78646573578796    8.32391713537414
C         1.63313111779534    6.23540025021726    6.87737029411209
H         2.64310446644603    6.27947636165372    7.25355341398883
C         1.25462040781675    7.03593104223098    5.81044424344683
H         1.96858493731776    7.70442681983849    5.35495141383383
C        -0.03645224291938    6.97901131210541    5.31367644504605
H        -0.34428027462592    7.58684279154108    4.47820813668408
C        -0.95343049216449    6.11597674609258    5.89250084226571
C        -4.50286207655151    4.74239177244202    4.90199962427093
C        -5.32645880575263    5.69074530720562    5.49627411647313
H        -4.94108546038730    6.30390596529715    6.29802929911006
C        -6.62418618093398    5.84155498381838    5.04384089285355
H        -7.27416477976223    6.57038710663118    5.50446080480589
C        -7.09258481032612    5.05477007992130    4.00250736098460
H        -8.10903121568780    5.17246124906673    3.65828736172130
C        -6.26601593574915    4.11888972461220    3.40007897505022
H        -6.63615909664468    3.51179107245856    2.58832122301059
C        -4.96661938232967    3.96159260394429    3.84674525188857
H        -4.30279177928171    3.21671368830062    3.38517178343037
C        -3.76557119490888    3.43053857004317    7.73460273374398
H        -3.27306891503908    2.54991811232123    8.15617705357215
H        -4.49097302644474    3.10356703285311    6.98659485463892
C        -4.45424735964524    4.22067461483227    8.84109099381152
H        -4.80788531394760    5.18405849428742    8.47261190961222
H        -3.78725502909217    4.36399712014029    9.69042443030001
Cl       -2.69014167719166    1.60620375557092    5.38182992729183
Cl        2.30889216741018    3.32405442963505   -1.50015160436240
P        -0.78887692584542    4.50164886375999    2.53260663007730
O        -1.33175103926840    6.04212929607576    2.52347264831308
O        -2.14181783251685    4.17681426922408   -0.97226848826909
N        -0.79154103202066    4.26575566408392    0.84568590617774
C        -1.97181357073079    4.52281810621481    0.17454061477494
C        -2.97672800340536    5.32345816577203    0.92445516003741
C        -4.28048999820495    5.39680588820814    0.43823455166657
H        -4.53812046251627    4.78672539385894   -0.41400859847022
C        -5.20323592588960    6.23534506443137    1.03268703132416
H        -6.21313687201462    6.27944280687701    0.65631841461149
C        -4.82497953363434    7.03571914591963    2.09982198986907
H        -5.53907366397870    7.70406769722614    2.55532622563655
C        -3.53399125318633    6.97879518535683    2.59680741477589
H        -3.22634400086457    7.58646891487396    3.43245777481850
C        -2.61685540266277    6.11594739159832    2.01796639638118
C         0.93240847021741    4.74232751871192    3.00883569041480
C         1.75582758046906    5.69106846659947    2.41495684567901
H         1.37029967393367    6.30450930435237    1.61348357498046
C         3.05352863746255    5.84188709967214    2.86744047099821
H         3.70337889250528    6.57103458288723    2.40713117137616
C         3.52205509464617    5.05466167559600    3.90838816677261
H         4.53848495099650    5.17235983665891    4.25264970367797
C         2.69564347252797    4.11836436590665    4.51039089142198
H         3.06590780083001    3.51096312163202    5.32187258352912
C         1.39623605419051    3.96110277226563    4.06372111492410
H         0.73242381496364    3.21599921875094    4.52498334180287
C         0.19566935103673    3.43051453143883    0.17635757128655
H        -0.29683891182234    2.55003847064976   -0.24550294082631
H         0.92066177083395    3.10332217572292    0.92466334727932
C         0.88507926368098    4.22053085717166   -0.92975492781344
H         1.23892966519938    5.18375732314079   -0.56106889867299
H         0.21853832971039    4.36412774553117   -1.77939314708006

