31
CSD_code = LIRCOG | q = 0 | S = 0 | Stoichiometry = C11H9BrN3O5ReS | MND = 6
Re        0.15330659714246    0.38476397207555    3.20486013108341
Br        2.60354849119604    0.45494165733551    3.89312925631114
S         0.62371167581313   -2.04793174256537    2.49274966621674
O         1.65452538242425   -1.81472698209484    7.61340329153610
H         2.35292916063112   -2.08449872733428    8.22201884809164
N         1.52889106289732   -3.79107406821548    4.21765081459299
H         1.92440217614812   -4.03824466509652    5.10996492292378
H         1.92316753226054   -4.23053567032419    3.40240192368488
C         0.94487796412690   -2.58665638492070    4.03778616307029
O        -0.57083744973123   -1.00754429572737   11.75836487456853
H         0.17384228693799   -1.51583156014060   12.10350124436411
N         0.56636811020752   -1.93042760891507    5.15500291994533
H         0.89013391068669   -2.27938215886970    6.05578745449838
C        -0.41118712580343   -0.14214982649127    6.21292022398845
H        -0.93115672730978    0.79396891054606    6.03961234729929
N        -0.00808796180301   -0.70120296923529    5.12426716960100
C        -0.36497015926223   -0.50543778383698    7.61969629807567
C         0.61340218981737   -1.25118376160224    8.30029339091020
C         0.55151765166759   -1.41296102283679    9.67691672267992
H         1.33514385341526   -1.97329486203997   10.17458354980366
C        -0.48197045905075   -0.86195511705035   10.42160407681818
C        -1.46395066601379   -0.11908817141288    9.76429392146252
H        -2.26079995176594    0.31640960216450   10.34322960943954
C        -1.38241100596666    0.06290704156157    8.40769390861715
H        -2.13587639779538    0.65657266066605    7.91323776886644
O        -0.31437835555422    3.20356685308198    4.38878474656384
C        -0.15466977810244    2.16167335243754    3.93149501349063
O         0.98594679847963    1.49262874665559    0.44471256742200
C         0.61675462088586    1.12403358434709    1.46103525045636
O        -2.80788065116067   -0.09273454198995    2.49122488172139
C        -1.71009277543305    0.10199553981300    2.75427704188777

