60
CSD_code = LITMOR | q = 0 | S = 0 | Stoichiometry = C26H26ClF4N2Rh | MND = 6
C         1.78452191937366   11.88794261867102    4.84318156492443
C         2.41092670353770   10.31899471365176    6.31691316746340
H         3.04815829685808    9.56515848471163    6.72958506684413
C         1.17801736453190   10.75975348913916    6.71509817703865
C         0.28447005162671   10.42618663920762    7.77375606526862
C        -0.97328305390533   10.94970702413381    7.70214536531782
H        -1.71758189024711   10.67922396609227    8.43496840790586
C        -1.26247958794466   12.01899386936875    6.81186428547193
H        -2.19728084759025   12.54337157865709    6.92737422309438
C        -0.31336917376679   12.51481288752379    5.97196937861905
C        -0.30157546798640   13.91583708694188    5.44998372711535
H        -1.30837350215560   14.32491419552006    5.51471265495529
H         0.04160813559369   13.93475351072827    4.39945445546561
C         0.69396991936394   14.81291606638459    6.27172864947151
H         1.60054662917945   14.96159529858508    5.68105914875054
H         0.22069862316312   15.77728558048369    6.45045481962259
C         1.05078994285658   14.14841193865168    7.56658014046005
C         0.08267590118173   13.93710351074535    8.54623075971841
C         0.21417254305600   12.93516432308831    9.49544331047446
C         2.25852143570603   13.47800836843176    7.74728230881923
C         2.38936189043988   12.47555751575015    8.70180129140358
C         1.32703428565981   12.09953815601212    9.51531209952027
C         1.24448241152036   10.72396936572838   10.10702350072824
H         0.51143868601253   10.72094087220670   10.91180170475828
H         2.20963874317340   10.41988407918516   10.50875449308443
C         0.80427668867085    9.70951181374879    8.98908909876876
H         1.65966844896767    9.09614025999742    8.71149591789998
H         0.02995974908651    9.06089039900086    9.39722585327914
C         3.97928374514400   10.85321142099728    4.47294286877899
H         4.09147213140416    9.82587428340518    4.12108817265252
H         4.81982086522613   11.10714337491956    5.12091863620423
H         3.96528917370241   11.54144854011811    3.62022910933386
C        -0.06554099718047   11.65765611601433    2.57725643890240
H        -0.54411381267150   11.25678028196882    3.47207586711124
C         1.05807294653522   10.98150676923419    2.09547755130641
H         1.39773783030949   10.11911396794527    2.66966643713144
C         1.41937137915592   10.92503669783260    0.62519380471909
H         0.50346256064564   10.96745216169718    0.03373797107217
H         1.89449777236937    9.96510109176845    0.41118563569973
C         2.37996806327694   12.05555047843765    0.21080428692602
H         3.40978348582122   11.70843518306090    0.33044954183027
H         2.24236916168599   12.29623349940154   -0.84919025028000
C         2.21224842417270   13.31381604674944    1.03047273910623
H         3.11475919246645   13.92100486831770    1.09219663770568
C         1.00606511859486   13.91974779286976    1.31359753854019
H         1.02674975787384   14.96674743069657    1.61672235571167
C        -0.31831011857802   13.43570342944419    0.76503946317900
H        -0.14977923387883   12.97030153075709   -0.20729360258307
H        -0.97123580152795   14.29539001743918    0.60131637182171
C        -1.02285378637972   12.45079125683315    1.71654703975125
H        -1.68779946987069   13.00939548036785    2.38056933930808
H        -1.65040933831853   11.75876420089561    1.14313780744800
N         2.74323831219048   11.01151313205784    5.18816163615827
N         0.82304082753594   11.75559286872391    5.79531095812413
F        -1.07046980660732   14.62357765721105    8.47766715903637
F        -0.81640971106086   12.67475056310507   10.31907698229082
F         3.28202936831128   13.69039190189590    6.91568122708176
F         3.52596062357588   11.75508147985860    8.74090598010511
Cl        2.98544331910888   14.47159668652272    3.79359656469437
Rh        1.65946317098512   12.78972217710524    3.04826809489998

