35
CSD_code = LIVBOK | q = 0 | S = 0 | Stoichiometry = C14H15I2N3Pd | MND = 4
I         3.82167494521184    2.74916400780273    0.10655290683892
Pd        2.93557890725437    0.67910262555318    1.42016768009389
I         2.03011112199538   -1.52018223493531    2.48202646514256
N         1.18548387611785    1.60893234303764    1.76211985695119
N         4.99836779889405   -0.89985267872370    0.02812444395762
N         6.76176147061230   -1.02138067257168    1.28602651023747
C         0.19498315062995    1.71711023772262    0.88451913028823
H         0.34635233855806    1.23791505248823   -0.08140378839167
C        -0.97125407493665    2.40407992371429    1.17297159208474
H        -1.75463331231277    2.47079719404083    0.43463705412230
C        -1.10506326306130    2.99837431678363    2.41817595641733
H        -2.00090267327567    3.54316193791688    2.67452234417945
C        -0.06543168126495    2.88167658014718    3.32953061748464
H        -0.12812169254050    3.32852782037581    4.30924117765899
C         1.06411013369526    2.17556183275675    2.95924740101694
H         1.91017846235800    2.05355354641866    3.64227779676248
C         4.66742288586811   -0.20049608657359    1.14218213093499
C         6.25765907376056   -1.39217823050240    0.10378055370316
C         7.97772928051057   -1.25485274933162    1.87185077412883
H         8.68914699315829   -1.84446369894719    1.31611235532726
C         8.23625328843685   -0.75068055971175    3.10287538562803
H         9.19644703145127   -0.93962620240390    3.55528993796553
C         7.27302467314342    0.01370813065974    3.80793320203050
H         7.51369296923160    0.39524291054700    4.78618647483561
C         6.05929146925228    0.24946579799697    3.23601852184687
H         5.27898748921698    0.82384469529916    3.72197461644232
C         5.78921625914633   -0.26886080372054    1.96016170442412
C         6.91537963495564   -2.20850886559917   -0.94308948349712
H         7.99183115585921   -2.22143867854052   -0.79645990811740
H         6.70614492010911   -1.79635536200042   -1.92898642818809
H         6.55171027768078   -3.23793594710432   -0.92195852604221
C         4.09724545419948   -1.07351643199801   -1.08240826410163
H         4.47838257167353   -0.56443777448160   -1.97052155197876
H         3.12633036085339   -0.62477884291487   -0.80173988634790
H         3.95360870356510   -2.13317313319825   -1.29923875384102

