67
CSD_code = LIVDOK | q = 0 | S = 0 | Stoichiometry = C36H24ClN2O3Re | MND = 6
Re        6.01908953267129    5.68834918838301   12.52263602243149
Cl        5.75049422780718    7.54580336102219   13.83268185828245
O         7.43795069795382    5.22104493144688   13.25752511957920
O         4.25539539615637    5.75706107450348   11.89212616231702
O         6.54375993112410    6.69611304414500   10.92645469059178
N         4.82864503811302    4.64003825712537   14.04034021859054
N         6.30421458390497    4.04503369583756   11.03208787425260
C         5.29203164262435    4.09609656934840   15.16506136616880
C         4.45979301069813    3.47246083739988   16.07371413352163
C         3.09761174176510    3.41001648905028   15.80804846719064
C         2.61980149769683    3.97974025277424   14.64120554139246
C         3.52048392173664    4.59424715299926   13.78486615327665
C         3.11791312548680    5.29458181150389   12.49459982387488
C         2.28599207395952    4.36468311819710   11.61539111596828
C         2.68590923726273    3.21723205601262   10.96915997029530
C         1.75620618148029    2.53515657352053   10.19319998565327
C         0.45439728271887    2.99600491013635   10.08097471912492
C         0.04957516920465    4.15198842867625   10.73098361192236
C         0.97307304174920    4.84221881646615   11.49803284941762
C         0.85529970936295    6.08196869391315   12.25261752117816
C        -0.22137481535968    6.93206283285867   12.44094391107956
C        -0.03287733286602    8.07953107273014   13.19630167510518
C         1.20451095936463    8.37561854388674   13.74693874261149
C         2.29112937889893    7.52582403936933   13.57232035937021
C         2.09763396658815    6.38450621633230   12.82612516911715
C         6.22617767178277    2.73385586254824   11.21680791219796
C         6.43038883818582    1.83163933903458   10.19275463201856
C         6.72651487971959    2.32738033679925    8.92646091483900
C         6.82285523196771    3.69118560681990    8.74617649501219
C         6.60771140988161    4.53547095318013    9.83612455569062
C         6.72676862171932    6.04120834369160    9.73615064195201
C         8.07968001570534    6.35710446502874    9.10069490197041
C         9.32467371899015    6.21062995840442    9.66714995379348
C        10.43206960472683    6.56761955333712    8.90701915813257
C        10.28066701054330    7.04905290775809    7.61556040215205
C         9.02328438288114    7.20398581536958    7.05115579011179
C         7.91287987843120    6.86029873140751    7.80410920102608
C         6.48703605745330    6.94505357261771    7.51473980178741
C         5.80668361416258    7.38468215061801    6.39158402184977
C         4.41982628347039    7.38282744052458    6.41166342826302
C         3.72162949732129    6.95603609276511    7.53044986677551
C         4.39542440674816    6.50404185411447    8.65865331122827
C         5.77120680505357    6.50255742510789    8.63563370739466
H         6.35895974543938    4.18125622080802   15.31741836858851
H         4.87009113676979    3.04876430400388   16.97580890848525
H         2.42117319891447    2.93247068217968   16.50009916529835
H         1.57043844031105    3.96611400714150   14.39135864201011
H         3.70104623308311    2.85642552562879   11.05474859200626
H         2.05413106379114    1.63660491716801    9.67308464528292
H        -0.25287634106027    2.44914498050932    9.47472863617051
H        -0.96444409209083    4.50998378559278   10.63574856726235
H        -1.18462484598746    6.70844870432943   12.00673936836534
H        -0.86177845070732    8.75489668936727   13.35167601071538
H         1.33107474368146    9.28040357587014   14.32176828205619
H         3.26091946020330    7.76000066999994   13.98818238543958
H         6.00117508591228    2.41427174836824   12.22528170653718
H         6.36034681988406    0.77150458729614   10.37611909293936
H         6.88592891286142    1.65297506133623    8.09849584168825
H         7.06313564885754    4.11591137777156    7.78421203621379
H         9.42444404321557    5.84679325041750   10.67936600916570
H        11.42156544444108    6.47153226616039    9.32839721779428
H        11.15646575180989    7.31731516366931    7.04258526260464
H         8.91365917266471    7.59153039830872    6.04918072958560
H         6.34363258668312    7.72682166471549    5.51936010611512
H         3.87507150000891    7.72623483901731    5.54402957186559
H         2.64160683971094    6.97437703137921    7.52735843264879
H         3.85842077272594    6.17950617218859    9.53762666264995

