68
CSD_code = LIWVOC | q = 0 | S = 0 | Stoichiometry = C24H39Cl2N2Ta | MND = 11
Ta        1.13205738870140    1.89528635070941    1.79307064194597
Cl        2.58080186738773    1.97272988075631    0.05605580670373
Cl       -0.38160739881993    3.25219540025622    0.79535410334812
N         2.11909967131009    0.34753252561804    2.64209990687016
N        -0.26814381760536    1.07539967677325    3.02795819545338
C         2.79581938252276    4.37060996935889    2.49358856004313
C         2.01297868626651    5.46762503423313    2.30791566166036
C         0.83597057704668    5.35685477949734    3.15300473335595
C         0.89530711044047    4.18486323901734    3.83874146937301
C         2.10583335177313    3.44952999837762    3.42017232357697
C         4.16913899441493    4.13402402265562    1.94598726743234
C         2.26370104161178    6.63614561323540    1.41686225293557
C        -0.23328712194723    6.39435382093688    3.19497983288579
C         0.00289404476867    3.72144379676165    4.94478183845911
C         2.91691861703829    2.76274570152891    4.49153789345839
C         5.61522410601541   -2.08780064465056    1.88889364752878
C         4.71162462390570   -1.66098187862388    0.73548442124633
C         3.32796831385471   -1.27174492741470    1.24601535195144
C         3.44296476231499   -0.14982542838410    2.28814776882115
C         4.30890083964745   -0.63628736615649    3.45673998504936
C         5.70234810537314   -0.98379854664842    2.93888216948473
C         1.40056036583363   -0.43254383110905    3.48874853689600
C         0.11442958729286   -0.04579104109204    3.68866182219729
C        -1.69546687023625    1.37695740471553    3.01322181190667
C        -2.38209653551590    0.59961152305120    1.87827927223591
C        -3.82396658519946    1.07012746822517    1.71430109136882
C        -4.60092977656296    0.91021800822911    3.01778852525360
C        -3.89398149475399    1.64108363991322    4.15541650062721
C        -2.46776554286687    1.11917163108240    4.31238950024261
H         4.90455048824116    4.70066174182612    2.52087429816780
H         4.23847798270824    4.45357566971321    0.90771012505213
H         4.43533547391543    3.08008921588610    1.99397453755177
H         3.15068487198276    6.48060583453110    0.80900596602716
H         2.40303665709280    7.54358451478258    2.00543329755588
H         1.41021623192329    6.79486794647787    0.75798666409217
H        -0.76699602352305    6.41492533688191    2.24361005856182
H         0.19595649172487    7.38201008371516    3.35818495072547
H        -0.94735694393376    6.18872461501873    3.98756838259127
H         0.31593269259812    4.16868675929885    5.89065900452222
H        -1.03101536708801    4.00737920716724    4.76461287830841
H         0.05849418079631    2.64057785142685    5.04333080725410
H         2.33979236065193    1.98344640584177    4.98571826304831
H         3.21567484168737    3.49770561226355    5.24109736600308
H         3.81771835272238    2.32291738838406    4.07152286484670
H         6.61256234922523   -2.32181153507285    1.51173766230138
H         5.21176305186001   -2.99242642743745    2.34998139735105
H         4.62292201462662   -2.47372086380229    0.01203469469075
H         5.15486342070022   -0.80403153622941    0.22429230805826
H         2.70571132442532   -0.91965311135960    0.41927371733848
H         2.83653727868770   -2.13557823203118    1.69945377036926
H         3.96325427196595    0.69111207313226    1.81680134441061
H         4.36753186460107    0.13580316340514    4.22524895478633
H         3.87783674897868   -1.52977380982733    3.90957456966121
H         6.16082166051239   -0.09665469100110    2.49668058623695
H         6.33257810174174   -1.30879010602566    3.76932612751992
H         1.81683413567553   -1.30969447517372    3.95748608940815
H        -0.56122636039037   -0.59924963105333    4.32080491778872
H        -1.76938034561414    2.44622747604645    2.78677280769643
H        -1.82984908988819    0.76088457357511    0.94777260934730
H        -2.35621981149344   -0.46825438477062    2.11021523014960
H        -3.81990282715224    2.12138052122614    1.41959300396346
H        -4.30987106013319    0.50076769270844    0.91947557546493
H        -5.61322973498148    1.30040620936960    2.89630858777122
H        -4.67976080418331   -0.15110103335173    3.26533022136728
H        -3.86992118181798    2.71158108930037    3.94162927006381
H        -4.44299535174380    1.49667771738018    5.08829986278249
H        -2.51811203911074    0.05007793921895    4.52480940063174
H        -1.97404620204408    1.61212737774809    5.15042693427613

