67
CSD_code = LIXDUT | q = 0 | S = 0 | Stoichiometry = C21H36BClN7Ta | MND = 6
Ta        0.78432699417916   10.93988527618537    7.31753376836845
Cl        1.28991216488841    9.78949875889957    5.39425222525069
N         0.70172985934280    8.71530624593827    8.34381117140759
N        -0.35380098218506    8.37093151509029    9.10948602517852
N        -1.69969368141411   10.21866415647677    7.22104952938284
N        -2.27706545653336    9.77330805623938    8.34850001006262
N        -0.04591329030698   11.50107434519690    9.39989688576688
N        -0.76161407326524   10.63509294983674   10.14434567863954
N         0.74043027547022   12.58179893617711    6.59724335056596
B        -1.42368982543340    9.37075123779340    9.56237087858190
H        -2.10844596972088    8.87694843201120   10.38526369453106
C        -2.64954224957512   10.40380223426673    6.31239525531100
C         0.25759590119177   12.54815512034907   10.16922977585719
C         1.02952607249524   13.71692953884527    9.68021602749960
H         1.05455252473921   13.68449281177490    8.59487386510334
H         2.04963589443973   13.68790535036901   10.06067004162927
H         0.56620507526202   14.63875463708434   10.02651730817011
C        -0.26898523189981   12.34578722955146   11.44425585732039
H        -0.19389327074661   12.99941174545287   12.28929714672545
C        -0.43188507168340   14.65986280484336    6.16016463986540
H        -1.35226915234773   14.08365312169266    6.11245554868265
H        -0.48998124250500   15.49044600128539    5.46136642093508
H        -0.32387985733468   15.05133929404947    7.16787049726603
C         0.66032045838050   13.33246908650241    4.32251667790743
H        -0.31969833777355   12.91283733048034    4.11958499599262
H         1.41109227043308   12.57387416073095    4.11646773494432
H         0.82312290747384   14.19001332814139    3.67483847463423
C        -1.62864757539394   10.42580512209376   12.49023117066700
H        -1.21369884459328    9.43365145299783   12.65587507100655
H        -2.68566778185158   10.31551741288106   12.25511101056535
H        -1.53201141738761   11.00624959299850   13.40392863129316
C         0.75819431133658   13.74606566879519    5.80643146422627
C        -3.88647381939549   10.06662921488916    6.87201808666597
H        -4.84636509689246   10.10449430223296    6.39805605870609
C         2.08439640219768   14.50759536615419    6.01204703810355
H         2.17113547671009   14.85961258829539    7.03610964703583
H         2.13334754034442   15.36209922905493    5.34211535151291
H         2.91354250677213   13.83730893563662    5.80227715675644
C        -1.34488447330325    6.31860980588235   10.16367713868878
H        -1.40495587056007    6.71445139074278   11.17618678633809
H        -1.07588207408864    5.26657291429943   10.21337992640597
H        -2.32842680090029    6.40784742559259    9.70514281934548
C        -4.56123424377850    9.22015978636608    9.21724195816947
H        -4.33684410731746    8.20395991289017    9.53691419930869
H        -5.57315259897125    9.24792180373497    8.82200979541738
H        -4.50589414461102    9.86893682306252   10.08987987432543
C         2.65073589639869    7.56144037809902    7.29539895410432
H         3.19284330016117    8.50211397395995    7.33180720193088
H         2.39953560617046    7.36294109073113    6.25332162892638
H         3.29290467699883    6.75876903892701    7.65391526648559
C        -2.34829565421840   10.88332217492264    4.93869492996093
H        -1.27643756849405   10.82620118970814    4.75849055927125
H        -2.67442811397482   11.91652901344340    4.81998006456697
H        -2.87471912800960   10.27619810646372    4.20419056277661
C         3.18140344552978   10.59738425352269    9.52391065808053
H         4.22510670072882   10.69840033707396    9.83228376998086
H         2.93213146646092    9.53756211484025    9.55586328305057
H         2.56841363733672   11.11265024515821   10.26337647247694
C        -0.91001631115565   11.11984614098789   11.39000379578661
C         0.79485494540427    6.52746389734522    8.74554169175148
H         1.12349150795195    5.50784659160351    8.74625113432807
C        -0.32522324156095    7.04727681652148    9.36409988769793
C         1.40950315372424    7.61188217252440    8.11321098326513
C        -3.60919174493728    9.67101575600959    8.16821022105320
C         2.96814309265434   11.18356574748392    8.13223495156204
H         3.65892189358688   10.69412855852493    7.43791418062002
H         3.26565234531141   12.23397994858591    8.15449313235101

