25
CSD_code = LIXTOB | q = 0 | S = 0 | Stoichiometry = C4H14Cl2N2O2Pt | MND = 4
Pt        0.00010583090188    0.50433246011567    7.52623846767701
Cl       -0.99122967212153   -1.01078621552301    6.18724502066906
O         1.43485751198525    3.80720033570273    6.65536866043064
N         0.91129045302962    1.96223257464357    8.79387953799443
C         2.27529550140679    2.34645587390578    8.43324189433370
C         2.33689350772435    2.76088934795883    6.96145989603966
H         0.91279603409760    1.50866649992481    9.70795491293697
H         0.30357469685168    2.78381822927955    8.82472378365486
H         2.92797024370993    1.48293477949316    8.57473066514828
H         2.63184813064825    3.17080210232006    9.06786872490533
H         2.03213638938898    1.91091458122150    6.33984810174437
H         3.36291037332203    3.04431383075767    6.69780069429390
H         1.68133105412427    4.58913468734873    7.16227058540603
Cl        0.99130688262106   -1.01002488704803    8.86472279215296
N        -0.91126830035688    1.96226712517791    6.25878335586054
C        -2.27529293356962    2.34645154592169    6.61934713318964
C        -2.33702415406970    2.76099122334966    8.09107227873015
O        -1.43501305508196    3.80732284609440    8.39716162598149
H        -1.68105124484773    4.58894258651417    7.88995966890099
H        -2.03237419616125    1.91106761510118    8.71278312948624
H        -3.36304246105924    3.04449673715244    8.35460177756524
H        -2.92794589209843    1.48292814301637    6.47781176982073
H        -2.63180283590635    3.17077771863792    5.98468404153875
H        -0.91271956757377    1.50871951263068    5.34470256017452
H        -0.30355229696539    2.78385074630317    6.22803892136452

