54
CSD_code = LIYCUT | q = 1 | S = 0 | Stoichiometry = C14H28ClN6NiO4(1+) | MND = 6
Ni        5.34931731178135   -0.68138425101037    3.74359852516049
O         4.05222710090764   -1.18957330937798    0.75032742784843
H         4.43679309032586   -2.03300949245125    1.03969748166654
O         7.84217330122616   -1.49098763376933    2.64715567309467
H         7.38360833982352   -2.32451850727363    2.93551633136954
O         2.71142974392131   -1.18270069806709    3.96873770883976
H         2.09007061513778   -1.73437961575437    4.47764746000171
O         8.75478347313390    0.98124506755957    9.10061666348178
H         9.19802689301451    1.83967905792774    9.04731229885430
N         4.28492592644274   -0.30315988978527    1.78549626132640
N         8.37314459805455    0.69226998692190    7.79720240774712
N         5.19403420525069    1.44188647778092    3.58676918437862
N         6.95212598233661   -0.48680436415596    2.90332897579537
N         3.82823561899046   -0.87822598777171    4.69549307035712
N         6.14135404764679   -0.08715059442511    5.84201250732313
C         3.73636294545633    0.84083448100658    1.69261112068201
C         2.86433968686321    1.28045629364881    0.57161437294800
H         2.30005665144662    0.42854919206944    0.19664379071395
H         3.47889078893930    1.64639736538264   -0.25163200192168
H         2.18841344480501    2.07238894895291    0.88146363648125
C         3.97982925048810    1.79045562015645    2.84041108685801
H         4.02301335600944    2.82311597407190    2.46777870907367
H         3.11385770522756    1.72039966863033    3.50631713007748
C         7.87026936279319   -0.45759783031071    7.60705664029993
C         7.69708882024979   -1.48682966267124    8.67630412991404
H         8.62610225145873   -1.56562642270335    9.24045676590865
H         7.43621212759843   -2.46000481509905    8.27121563225340
H         6.93433073118415   -1.16464423198121    9.38649263420020
C         7.33081378682995    0.69248564575361    2.59020560268093
C         8.65679618311708    0.94827501583326    1.96507783082448
H         8.74351752140424    0.36534891111414    1.04809659912550
H         9.44992648037972    0.59632678602519    2.62477949399446
H         8.80216546762482    2.00063092027204    1.74561524637738
C         6.39252927640713    1.83392114319879    2.82373927314784
H         6.92928627255325    2.64435839242088    3.33120176309933
H         6.09914631428107    2.21464526460059    1.83865445936276
C         7.41423406868065   -0.74300942432067    6.19518875499600
H         8.17628471849759   -0.38998510002379    5.49768360355295
H         7.28914367548994   -1.81820545635269    6.04982668361937
C         3.78746252448577   -0.84561542711105    5.96936610245000
C         2.56045884542255   -1.17126234683525    6.76131784795823
H         2.29902123049566   -2.22542532605288    6.64342957446682
H         1.71024536301524   -0.57037877177225    6.43552606675487
H         2.72867425072012   -0.98785588726522    7.81790057144408
C         5.05172109377924   -0.53391173747235    6.71678011339232
H         5.34704578779109   -1.46206388027817    7.21760745219007
H         4.83386984928596    0.20149443861930    7.50449943117902
C         5.19607701981062    2.01525633068571    4.93547063989754
H         4.21427377534439    1.84380845214133    5.38198302861410
H         5.36641726551908    3.10013698283462    4.90432166023909
C         6.27095430673799    1.37025068021700    5.81717287542220
H         7.26184995292768    1.60785982621614    5.43036072941480
H         6.20366871901145    1.80084005958978    6.82438728508585
Cl        5.58539887987515   -2.82990631954071    3.81906168597789

