62
CSD_code = LOCNIC | q = 1 | S = 0 | Stoichiometry = C18H37ClFeNO2P2(1+) | MND = 6
C        10.73684990601653    4.30338898601131    8.18765997572853
H        11.54864984272985    4.34978035705817    8.92352854666188
H         9.78348935138951    4.32742498997994    8.72071686701751
C        10.82021945872896    5.47133054749575    7.21627610064288
H        11.79650925845132    5.47954204394523    6.71999696933036
H        10.68625309728818    6.42188512814076    7.73389501573612
C        10.67008017843010    1.86704542135086    8.29952494298532
H         9.71495583071873    1.94111943009090    8.82588959969195
H        11.47388455986083    1.84874025650330    9.04535500813538
C        10.70627741847075    0.61016499680750    7.44119704775028
H        10.54253871078672   -0.28007053665427    8.05038653071701
H        11.68024470545860    0.52758822388827    6.95392626066101
C        10.35448299662775    6.06811974386944    4.46041566574043
H        11.30437386442440    5.52394792136090    4.35973274761838
C        10.67441275704260    7.54202657746117    4.70080523043957
H        11.36495357695284    7.88497982665852    3.93315629323730
H        11.14107679151251    7.70675646080147    5.66933991535638
H         9.78229353716833    8.15904884638309    4.63107249446819
C         9.56359631752223    5.88822287844664    3.16847651531447
H         8.65811629550951    6.49008626788681    3.17774218352529
H         9.29108703895370    4.84426800384525    3.01666839759219
H        10.16499526928070    6.20777018128846    2.32007738767081
C         8.09601174678201    6.32164376404410    6.35362142719277
H         8.39643187201423    7.31268405852610    5.98892764772776
C         7.80529850133487    6.42803434900386    7.84770741759386
H         6.98222430259637    7.12545081368475    7.98877240581247
H         8.65565630442122    6.80690594629256    8.40936781736526
H         7.50125553754906    5.47094410859778    8.25961474053687
C         6.85037033917838    5.86321713060246    5.59698997749265
H         6.47892399853863    4.92966823730483    6.01152872872077
H         7.05169403517061    5.71711064004549    4.53750207073344
H         6.06451314285359    6.60866115224879    5.69445273841212
C         7.92374299976162   -0.02894701761362    6.93053198238687
H         7.84243696167278    0.48072439900720    7.89938368287770
C         8.10503981297872   -1.52645610345075    7.17284282762766
H         7.38349044561265   -1.85063258491821    7.91951544903992
H         9.09822686703614   -1.77836046071548    7.53980784085319
H         7.91274073961830   -2.09763143234800    6.26764526584448
C         6.64267035584780    0.23151316682488    6.14285020866778
H         6.64959681020381   -0.29505148301689    5.19117931159943
H         6.50128701161959    1.29381771104808    5.95872082633800
H         5.78831865843894   -0.12433059313561    6.71418384776388
C         9.90316650437381   -0.37331248258813    4.76215466456288
H         9.52921253988568   -1.36355435921624    5.04288072637859
C         9.20936251153107    0.06531555481647    3.47298141011056
H         9.61882184087018    1.00863115889033    3.11686953316747
H         8.13870801865442    0.19139614512663    3.61966338889768
H         9.35802999688138   -0.68136248960474    2.69600748107404
C        11.41176990439225   -0.47291550783877    4.55509938920332
H        11.60654690438484   -1.03817367776212    3.64598188817968
H        11.89605349577802   -0.99801211699256    5.37493832717264
H        11.86930693450710    0.50642034184115    4.43620981354123
C        10.63504702996409    2.93708867005043    4.60571231623589
C         8.17973773249755    2.96702649042383    4.56721745826774
Cl        7.89236176666862    3.12097740452521    7.33643875219903
Fe        9.39777659824887    2.99817929415183    5.82636998562297
N        10.79806311993126    3.04470448341674    7.42752344424794
O        11.41721265049649    2.93854106305664    3.77264579448905
O         7.39015764890031    2.94781421546204    3.74967412433382
P         9.53041738108275    5.22279572811482    5.90463656010379
P         9.39948792276338    0.78475747428245    6.13298394131942
H        11.72558829176316    2.99915025519957    7.00112509022391

