33
CSD_code = LOFTIM | q = 0 | S = 0 | Stoichiometry = C14H12Br2N4Pd | MND = 4
Pd        6.35567526923275    2.34879493206971   -0.00098570855568
Br        7.49325028366322    0.67026933126568    1.34824845546572
N         5.32432089237593    2.91883012669022    1.57815668001253
N         4.33525420508021    3.70743456533915    3.38549818193891
H         4.18338861927745    4.27022604816646    4.20560159787614
C         5.40900322145455    3.77344238062043    2.55863702725564
H         6.22450034791045    4.45796366396210    2.71156569705757
C         3.49831842827278    2.73451583168190    2.89504828456566
C         2.27407959998504    2.22407593214850    3.30192300198618
H         1.77229469444702    2.59402388947947    4.18234345768857
C         1.72874069509892    1.22050327788484    2.52668643252652
H         0.77724533305015    0.79762916433631    2.81081571541539
C         2.36700268030016    0.73040863667860    1.38228353964419
H         1.89036679271258   -0.05533532379460    0.81681902054610
C         3.58276789821208    1.22884299035012    0.96804672346060
H         4.10040723886908    0.86046041843952    0.07587828196905
C         4.14144712872096    2.24148822807117    1.74395417379688
Br        5.22084145933855    4.02893823886103   -1.34653105485458
N         7.38908795236988    1.78019501681016   -1.57944006156494
N         8.37957400716652    0.99209103124715   -3.38617190491006
H         8.53212289923557    0.42941489765377   -4.20621853871498
C         7.30541497628465    0.92558907889703   -2.55994704001486
H         6.49037679926108    0.24063568057089   -2.71332441839674
C         9.21585376705940    1.96527471473999   -2.89516165381366
C        10.44010874034357    2.47615541942485   -3.30135935147313
H        10.94240346721816    2.10650409051916   -4.18160862594164
C        10.98472683860227    3.47980629757378   -2.52574375984081
H        11.93616428647287    3.90309900595748   -2.80943017187138
C        10.34577013722444    3.96949226557831   -1.38155849620615
H        10.82181507888136    4.75540759112139   -0.81583364335017
C         9.12999170535515    3.47056219888526   -0.96793014212337
H         8.61184113873142    3.83876887534687   -0.07593733545896
C         8.57194341778952    2.45789150342392   -1.74432436411436

