64
CSD_code = LOKKOO | q = 0 | S = 0 | Stoichiometry = C24H32I2IrN5 | MND = 6
Ir       11.01300792552061   18.20200459186549   10.71498357205790
I        10.59163314493774   16.78708721456655    8.42477344640983
I        11.46610808719804   19.60481655077963   13.01295390096236
N         9.29617566200600   16.02192047063263   12.41955437979645
N         8.27206472566310   17.71093682894103   11.56504470042254
N        10.85140393167115   20.70014773594605    9.22848704229003
N        12.95550775867963   20.26530417025331    9.10706670779187
N        12.64129999508404   17.10420860085688   11.10650073148606
C         9.49706770188097   17.12188361289494   11.67734696958524
C        10.33798933054658   15.10062463770578   12.82155396658414
H        11.21885859696489   15.36336108823647   12.22651368855515
C        10.65659981983890   15.29963471290667   14.30251769268360
H        10.95491687747872   16.32941208756196   14.48703632712617
H        11.46873438096068   14.64263980389670   14.60212079181043
H         9.78634213392546   15.07581734650509   14.91560093200162
C         9.94101462129156   13.66221959002556   12.50189118126904
H         9.11385681636022   13.33347536641399   13.12627731039491
H        10.78493542364915   13.00128720677534   12.68046957700939
H         9.64999954588501   13.57565522553887   11.45734906384567
C         7.97576194768473   15.92408720896551   12.77652479646699
H         7.59608276596389   15.12411640888148   13.37656242746840
C         7.33158919679891   16.98506925771385   12.23497701885378
H         6.29989409846535   17.26585588119606   12.27960938302748
C         8.17590652212792   18.90793086376082   10.83680303905008
C         9.41401216393141   19.29737318619632   10.34987024340102
C         9.52215340841787   20.46717356732081    9.61777284324764
C         8.40617869635831   21.24812770093332    9.35891845419335
H         8.51364361777453   22.15376628553165    8.78625543570179
C         7.16152881851324   20.85123419046256    9.84387738312885
C         7.05117979316855   19.67383437956418   10.58882906219581
H         6.09239578747267   19.36058136433268   10.97172010943570
C         5.90043689768212   21.66631651091010    9.59020743859333
C         6.16559505101713   22.92895992119210    8.76549735811763
H         5.23089860126464   23.46640466863241    8.61824975298399
H         6.56542752156197   22.68013342005644    7.78498548856922
H         6.85593925509953   23.59481343521829    9.27861255632870
C         5.30164128844502   22.09773385101662   10.93667618450464
H         4.41589853080320   22.70830820831315   10.77423312788823
H         6.02614324458502   22.68202305062059   11.50016049892303
H         5.01544984572870   21.24035188822798   11.53938074593119
C         4.89097642861722   20.80203468962354    8.82108726553766
H         4.60124214620445   19.92389253137162    9.39143140279542
H         5.32268753838551   20.46801468143652    7.87985118189762
H         3.99306685149836   21.37736743454332    8.60515203927610
C        11.79923592577196   19.79085845658606    9.59600580687503
C        14.24541833774567   19.63237862947596    9.28218906220913
H        14.04256443699777   18.64974710121572    9.72012390695968
C        14.93597185842694   19.43641640396154    7.93536659731803
H        14.27979064352720   18.90264677173914    7.25142595111669
H        15.84287012758869   18.85294849784987    8.06971941095249
H        15.20721409536246   20.39021303609270    7.48951225876489
C        15.09245198020060   20.44822107953215   10.25732959559162
H        16.04204299246716   19.95023930913576   10.43379225894054
H        14.57255592905434   20.55436749276672   11.20713241496248
H        15.29132451093058   21.44030759298880    9.85796702173134
C        12.74374086704166   21.45157169647752    8.45240478189199
H        13.53305539596093   22.00628555472846    7.99027698193889
C        11.41900849671549   21.72259919637490    8.52655801486500
H        10.85772181592560   22.54796959727505    8.14060196804474
C        13.59386446153150   16.52307768450592   11.39235409755086
C        14.77977790055844   15.80298752158559   11.74155647313093
H        15.56087741716511   16.50544945377649   12.03339983000063
H        15.11778628251764   15.21934851689148   10.88497032338538
H        14.57318002748271   15.13242497864138   12.57602602396594

