61
CSD_code = LOKSOV | q = 0 | S = 0 | Stoichiometry = C31H22Cl2N4SZn | MND = 5
C        11.16734742865911    1.21258577420726    9.58196699287358
H        10.95812344302156    1.45541753118627    8.55073703114471
C        11.58855271819314   -0.05825491494175    9.92464599507633
H        11.69730844974378   -0.80720842784572    9.15487350152632
C        11.88163802402607   -0.36707887974209   11.24243827355696
H        12.21374009556942   -1.35963524450291   11.50538850651429
C        11.75034683331210    0.60447819158741   12.22126487620849
H        11.97625060641629    0.37032733420314   13.25075201552999
C        11.32179638040721    1.87562082149035   11.89055650801555
H        11.21193929374000    2.63286066814887   12.65282246727072
C        11.02585763336016    2.18694724248968   10.56604866936019
C        12.55376720907743    4.60610683499296   11.09396307753971
H        13.15301324882301    3.76296880033009   10.78384643622512
C        13.13978525903287    5.69023106734707   11.71869381736205
H        14.20488693035900    5.69056961133594   11.89499775065915
C        12.37063655470167    6.77403428324724   12.10951748445703
H        12.83218937924067    7.62036767302150   12.59440350864698
C        11.00524462508322    6.76466470146739   11.87703768239922
H        10.39735267497121    7.60156430121768   12.18678191659957
C        10.40840386448924    5.68284896444078   11.25823132336576
H         9.34156861421538    5.67125724462398   11.09144792767736
C        11.18098568832337    4.59555510537922   10.85837773169912
C         9.57719401502669    3.66378946538362    9.32834559627398
C         9.35901584526912    4.75194381610797    8.51587047047746
H        10.02743739258405    5.59280506193466    8.47329928076342
C         8.20188381164205    4.63214768411359    7.74203667617276
H         7.89758503347273    5.38964813835991    7.04290530602901
C         7.51248164294706    3.45902402894173    7.93654789833708
C         6.31232517111937    2.99360560842985    7.30202711858136
C         5.64812966905941    3.76071958658616    6.33430322758565
H         6.05460506710250    4.70795690383596    6.02467438943705
C         4.49160545462268    3.26444565372661    5.75329984196904
C         3.74930710051899    3.94753322608792    4.68089978352599
C         3.92073754431016    5.29036247812017    4.35452845825811
H         4.60415880154654    5.91117189660364    4.91134122125870
C         3.18501675204499    5.82428579446418    3.30944562200300
H         3.30320036715642    6.86268750061244    3.03656884229471
C         2.29719782896521    5.00992387727444    2.62567071645290
H         1.70830446141125    5.38851267261896    1.80590927025496
C         2.17789671382021    3.68611372213812    3.02394315791680
H         1.49188119793516    3.00364653407234    2.54133491616974
C         5.77186639152704    1.74000282721040    7.61823803403821
H         6.28475063404080    1.10854170893340    8.32607570358602
C         4.61493549851456    1.31516207050966    6.98501599826984
C         4.00458352672077   -0.00982203179355    7.17967380020555
C         4.34235432316710   -0.87102948612034    8.22060547470167
H         5.06881246323046   -0.58219663709914    8.96305368668063
C         3.71933878006852   -2.10594388526584    8.29489759448167
H         3.96725861191302   -2.79211367247751    9.09137862317316
C         2.77623095506918   -2.44388843927694    7.33807373562603
H         2.27029036911826   -3.39554394636773    7.36257630962420
C         2.49286537420632   -1.52347036792224    6.33917994130818
H         1.75940760480995   -1.72237624338626    5.56987390324606
Cl        0.93594546011885    0.48167612025430    3.85910012346721
Cl        4.90463036684245    0.51566318787341    3.56900494334763
N        10.59040913241289    3.48333429973203   10.22916188642007
N         3.99153036377859    2.08353579572290    6.09883251624405
N         3.09156557622573   -0.34998308645092    6.26829981949441
N         2.88344397598590    3.17995962194677    4.01709407686216
S         8.31818587195955    2.47761642074507    9.14404987149486
Zn        2.96099589497961    1.04702341015236    4.56946867023838

