67
CSD_code = LOPJOQ | q = 0 | S = 0 | Stoichiometry = C25H35ClN4OZn | MND = 4
Zn        7.99641579553746   12.99084920471313    3.10781568270786
Cl       10.06435298660238   12.48997491635402    3.16464093711292
O         7.21040488933253   14.18357922169636    4.23512178337583
N         6.65070690835732   11.49614788962803    3.39529973307783
N         5.40177532345924   11.97633669711310    3.31842711284796
N         7.13981932725040   13.44349582703910    1.34539142249673
N         5.80716747512591   13.28511761441034    1.34588456565307
C         6.61880589968732   10.43880360948092    4.19736479791870
C         5.30858997930171   10.24206386868388    4.64990061087808
C         4.55660279509350   11.24855072580495    4.07920766253496
C         7.83408412566524    9.64015731307579    4.48846283468064
C         3.11534442481399   11.56861324390314    4.22921377977308
C         7.52459664424963   13.63077880232804    0.09208086160372
C         6.39832126942715   13.60592086793609   -0.74015585310799
C         5.31812524359579   13.38736669647277    0.08865336341893
C         8.94691233593945   13.83707289974123   -0.27001031630613
C         3.87832933632117   13.27797855618618   -0.25944746794706
C         5.02936729997066   13.15758303074343    2.55974376240523
C         5.00066122435584   14.42531914050639    3.39173100156608
C         6.09110880583723   14.85031403967628    4.17594596358769
C         5.91881010448164   16.04542147821882    4.93744803110433
C         4.72453775858678   16.72488604980817    4.85612460803143
C         3.64624740500135   16.31271210820230    4.06847291704534
C         3.81101537591549   15.15130224639382    3.34784425504931
C         7.06106245562117   16.54617330813600    5.81363037399316
C         8.28126821275434   16.84344026930741    4.93159625113934
C         6.71237928379985   17.83010081033225    6.57541656925722
C         7.41212040182388   15.46947104256783    6.84923625564439
C         2.36877689854057   17.13786577742306    4.05021013119630
C         1.78715578559615   17.19770155866226    5.46951438136214
C         2.69066502930885   18.55714631199752    3.56225384379721
C         1.30067367963595   16.54971361125831    3.12312619788373
H         4.96218139956918    9.47698093163473    5.31357094006690
H         7.89519379742863    9.42376370328367    5.55284899750409
H         8.72146684906193   10.18673354761710    4.17852402749851
H         7.79942641157532    8.69331788069945    3.94988378004581
H         2.67227678201557   10.90135721062077    4.96269557589315
H         2.98987517957268   12.59784030769273    4.56460269167406
H         2.58174908643799   11.44525175823389    3.28581823821582
H         6.37848201581447   13.72999189343042   -1.80318608877059
H         3.76713617236575   13.35578527498679   -1.33723447616373
H         3.30446086228669   14.08023900440291    0.20360781598281
H         3.46491326911959   12.32138624797448    0.06043219888668
H         4.00186335886909   12.97220751126966    2.22261584734378
H         4.60529825331637   17.62793009007900    5.42926390712173
H         3.01052137254170   14.77360852210650    2.72829738090589
H         9.10180774962128   17.21565876572691    5.54141353859273
H         8.03190075586842   17.59587447653794    4.18512829597532
H         8.61319332026060   15.94357757721731    4.42290255285049
H         7.56588993194145   18.12282255478111    7.18383048573781
H         6.49356645057223   18.64941058270318    5.89374221546639
H         5.86524611176260   17.67846111030529    7.24127388311053
H         8.22192492845130   15.81484141183973    7.48848875104403
H         6.54610308321438   15.24897153852573    7.47142371680325
H         7.72748551349834   14.55764223659293    6.35281050529290
H         0.86626079055413   17.77747435936463    5.47591353873712
H         2.48551788052717   17.65945007913720    6.16131222682634
H         1.56688044982074   16.19434188657319    5.82861908226889
H         1.78340174429147   19.15678288369641    3.52178582725074
H         3.39553074636223   19.05128689886429    4.22431577559143
H         3.12745766281590   18.52188508185582    2.56631511054392
H         0.41379807977610   17.17989872544009    3.14548421693108
H         1.65581117360570   16.50783283244760    2.09561009745201
H         1.00922599603048   15.55149687501470    3.44299055309273
H         9.59129740674483   13.46254334121209    0.52191611524127
H         9.17789604196629   13.32629147967335   -1.20170788322815
H         9.14655489136709   14.90000268066743   -0.40365549557446

