37
CSD_code = LOPYEX | q = 0 | S = 0 | Stoichiometry = C14H14BrN4O3Re | MND = 6
Re        0.95679735408265    3.39942676405463    2.55348141290571
Br       -1.11887819742783    3.60631521222623    4.11102864334688
C         2.60124060071356    3.26337928585432    1.53398726692994
O         3.58784800839137    3.18370431553114    0.95083126789804
C         0.60103289227860    5.25480748253869    2.02602519533545
O         0.34792293980535    6.35032902106217    1.82788057416528
C        -0.14367796555676    2.74558842615318    1.08698335525171
O        -0.84104511382793    2.36162970612777    0.25917470372252
N         0.90190148866022    0.29587868061030    3.57678879522686
C         1.24222174733963    1.58678517532997    3.63112479726762
N         1.79118897417445    1.75578587366472    4.87424944202272
C         1.78217385760371    0.57289155609111    5.57764979077701
H         2.16394779198404    0.50862833041656    6.57420556392833
C         1.21716572946358   -0.33721813345534    4.75753816958151
H         1.01538995323441   -1.37722303228745    4.91221849050123
C         0.20515345914248   -0.33031881422770    2.48019548087627
H         0.50246056301636   -1.38125163480859    2.43271554466345
H         0.51012308186950    0.16897228992924    1.55596077993728
C        -1.31030166319626   -0.20792146512317    2.65915893713043
H        -1.56605939502551    0.84501444512698    2.79233536023597
H        -1.61606379028214   -0.74134216044165    3.56247017850950
C        -2.06280172548602   -0.75836742222467    1.45232301034647
H        -1.80252321947550   -1.80983747713050    1.30641249197939
H        -1.75608237101853   -0.20990784784562    0.55998957512693
C        -3.56878107247257   -0.62279639181626    1.63513104418383
H        -3.90203559558548   -1.18014884902960    2.50788194469262
H        -4.09405922744503   -1.00263732602014    0.76264378525139
H        -3.83827834975754    0.42121520153709    1.77249170657136
N         2.04775320598633    3.99269084769570    4.41187035348527
C         2.20855934428221    2.99493609343890    5.29949135977125
N         2.71367278452288    3.10527400820414    6.51247041524484
C         3.07595184207532    4.31306639432063    6.90729170054444
H         3.47974308642395    4.37908080619149    7.90741120145646
C         2.94030106682526    5.42155548619620    6.08177822361953
H         3.22650146704917    6.40819347134825    6.40238473753428
C         2.41732655519835    5.20472291400325    4.81850848529730
H         2.28620989243156    6.01519876675955    4.11301621468034

