33
CSD_code = LOWXEA | q = 0 | S = 0 | Stoichiometry = C13H14Cl2O3Ti | MND = 8
Ti        3.79896328812245    0.81688344650198    5.67619585479206
Cl        5.02228574843230   -0.95338272360029    6.00872608941779
Cl        4.20636174405798    0.82483487826811    3.51904304943258
O         2.20054459941090    0.30800500847702    5.52264680617589
O         2.75187482284542   -0.57071025255484    7.86801955782892
O        -0.10606934735218   -0.13452218413118    4.23761417564614
C         3.41895486209131    3.07091342048965    6.04964394793480
C         3.36146666034848    2.40016353808030    7.29369950367108
C         4.64473774508975    1.86808409554500    7.55848181211180
C         5.49716794375844    2.22383716657476    6.48746415260689
C         4.74526437791847    2.97542993483727    5.56644901776160
C         1.26459390762908   -0.42804690849253    6.09798533715340
C         0.03881638575312   -0.70149302429678    5.46210425876862
C        -0.88837581057780   -1.50813987440649    6.11179940449632
C        -0.60318233356239   -2.02541048886824    7.36392786763758
C         0.59518332500989   -1.75800735172330    8.00600771152616
C         1.53108306946527   -0.95308219864317    7.37522954539527
C         3.27709390524601   -1.31888570448673    8.94845403281831
C        -1.27424367057913   -0.41605761527398    3.50434139478586
H         2.62570235889073    3.66346477302900    5.60912138140215
H         2.51750598174301    2.39401294932061    7.97281985121222
H         4.95626044159338    1.39468648019300    8.48085352913471
H         6.56580443681520    2.04624055458510    6.44283384432633
H         5.12914834498381    3.46045181512349    4.67818800688777
H        -1.83265372305722   -1.74062053755997    5.64738538808506
H        -1.33331567304081   -2.65185188910256    7.85226417223804
H         0.78574025265253   -2.17158180881932    8.98275160262986
H         2.77099811340268   -1.06228768437622    9.88527265065544
H         4.33184633648620   -1.05409013281316    9.01007491827081
H         3.19050512709507   -2.39216800409781    8.76126435907122
H        -1.37858653228986   -1.48870141540958    3.31403218398040
H        -1.15902852153097    0.10899542365523    2.55783283512219
H        -2.16814816684879   -0.04746368602166    4.01807175701931

