58
CSD_code = LUCWAI | q = 0 | S = 0 | Stoichiometry = C27H27BrNPPd | MND = 4
Pd        2.01933745450561    4.44816633404813    8.91825103764482
Br       -0.40118525447393    4.76964018548626    9.40600555654944
N         1.43515723730202    3.43019112543420    7.11109769313510
H         0.49794186158692    3.83758739855398    7.01709558686974
P         2.58787902972419    5.60267322347395   10.71745804519129
C         3.91331730291876    4.00781276857017    8.44149116059437
C         4.29075193019194    4.25618057003625    7.12165727590404
C         5.55962870546620    3.90596466167923    6.68392380209747
H         5.84859125238511    4.10601013423658    5.66029933575819
C         6.45670193365136    3.30507382159443    7.55087998543026
H         7.44703225879575    3.04431352411212    7.20630684420759
C         6.07667822001135    3.02752583485787    8.85133751620804
H         6.76622593182543    2.54160807850785    9.52730241438699
C         4.81010557392649    3.37947487555287    9.29371413157901
H         4.53171615696204    3.15911330897574   10.32128141152241
C         3.25785988347159    4.80615213390173    6.16685428250369
H         3.71843589953549    5.10978669664996    5.22523385592720
H         2.75010971696917    5.68176786307538    6.60846898079331
C         2.21167535230199    3.70844494080958    5.89683138178023
H         1.54989927798744    4.01911883726581    5.07917915271170
H         2.73728746760454    2.79946294300081    5.58649031511154
C         1.27295712822430    2.01019274122385    7.41573140268410
H         0.79034663799266    1.46717098642601    6.59241175852271
H         0.64994315728973    1.90440998239237    8.31056625795700
H         2.25145771046484    1.56067135496186    7.60662795364859
C         4.29959860092550    5.74808185490852   11.31810784168167
C         5.21600859621670    6.32500199859904   10.44297595003969
H         4.87244160460977    6.66884995245047    9.47423126538987
C         6.54310210144681    6.43960704476815   10.80383142645795
H         7.25304687004952    6.88312099234135   10.12163308153085
C         6.96429583737179    5.97484316433783   12.04092909879095
H         8.00352341321937    6.05868766841846   12.32281593813351
C         6.05654367887245    5.39845790734153   12.91260878307924
H         6.38653603262724    5.03432059802770   13.87475601200900
C         4.72419449333693    5.28013739200286   12.55407788181886
H         4.01610038324023    4.82169524109615   13.23134288109032
C         1.68786922749706    4.89004095983311   12.12621179111891
C         1.48707871826000    3.51240601427453   12.03566308847215
H         1.85053963860561    2.97834924083404   11.14905268653741
C         0.80920840473623    2.84211999848611   13.03453066636773
H         0.64790088060155    1.77657996174020   12.96183405769011
C         0.31715086631858    3.54703124818902   14.12277578468546
H        -0.22416489136383    3.02765972200079   14.89961644956169
C         0.49943832669301    4.91706592141895   14.20605320218506
H         0.09808317440687    5.46497501309222   15.04605946224090
C         1.18449672806270    5.59424820160760   13.21112902442838
H         1.30544022185261    6.66604040195784   13.26847230154420
C         2.15721760057369    7.35786326903437   10.53836093006419
C         1.55860113799211    7.75609773138568    9.34715530348875
H         1.35054110880484    7.00921215202343    8.57721964809386
C         1.22378094635794    9.08244374721387    9.14719861999951
H         0.75026380636688    9.38875122342801    8.22620558678758
C         1.49506084766267   10.01707811515052   10.13285974376724
H         1.22694037965255   11.05260405450447    9.98211477068956
C         2.12274029684380    9.63064477100695   11.30654655375826
H         2.34994761161947   10.36595628054619   12.06474376617446
C         2.46370928180243    8.30601057910269   11.50969832896139
H         2.98241224811518    8.00760325398416   12.41089093459186

