32
CSD_code = LUGZAP | q = 0 | S = 0 | Stoichiometry = C10H16BrN3PdS | MND = 4
C         1.15783329742847    3.95934639056086    3.48289694891413
H         0.32274077515524    4.57579848651223    3.12451953340860
H         0.82422158578027    3.44450886075907    4.39746290218468
C         3.28729312328547    4.14624007013099    4.59478184453305
H         2.87775390376646    3.89023224155450    5.58233566251553
H         4.16418738877339    4.78742550185883    4.73798535547566
H         3.59424465105437    3.22245167113610    4.09110836157935
C         1.80992202538440    6.02188456635143    4.51649940706496
H         1.13175694041206    6.60181140756492    3.88680986490076
H         2.64835696579956    6.65896879224938    4.79614781464396
H         1.27815006452703    5.71985696518591    5.42786620817567
C         3.92151179351308    6.56005779011767   -0.59102371188037
C         1.53980242254796    2.98304925455206    2.40236780624197
C         0.90826673320077    1.75425797096017    2.28048206609168
H         0.14067528840145    1.47361080605594    2.98938429321166
C         1.26058894158355    0.89306653275593    1.25637352756603
H         0.76870884107126   -0.06411654708250    1.16191951146542
C         2.24778198943829    1.26263211346362    0.36158214848983
H         2.53128490593607    0.59315220658735   -0.43822619735866
C         2.88454346929215    2.48949911465515    0.48558229104102
H         3.65854565623364    2.74678512571057   -0.22720804925771
N         2.28749251025079    4.85098369672255    3.78578272144051
N         4.38284739391222    7.13865266569791   -1.71169774088542
N         2.79262880462602    6.99714067674817   -0.02474766980470
C         2.53636683931922    3.37224940826813    1.49983249430777
Br        4.47723376384904    7.24061599109818    2.81859001092302
Pd        3.40994348009704    5.12597708387188    2.01167225109141
S         4.70987722285367    5.22599777623414    0.05660039812650
H         4.00282716653835    8.01005318577386   -2.04025658703879
H         2.39659171963232    7.89300399270031   -0.26643260965654
H         2.62271568523137    6.56374054793182    0.92333692128099
H         5.27000465105404    6.83736565332538   -2.07482777879861

