69
CSD_code = LUJFUR | q = 0 | S = 0 | Stoichiometry = C34H30ClNP2Zr | MND = 13
C         5.00586123624713    9.71532832217235   19.53966819461189
H         5.00431425235284    8.89334132851836   20.24361278529941
C         5.86270601679676   10.83150067577449   19.59959988734166
H         6.64064114072716   10.98709266820791   20.33603788372439
C         5.44740668444752   11.75395247599187   18.62614043883127
H         5.82024502189893   12.76392061975062   18.52152294119462
C         4.35028843993141   11.20292661371349   17.93321398597222
H         3.73037207565549   11.72133391010452   17.21140528371296
C         4.06566589818948    9.93834641185752   18.50852761858044
H         3.16894120726384    9.35690703552842   18.32963639547358
C         8.52750199566882   10.18046945225010   16.43477243876734
H         9.42378221423937    9.69485874158640   16.80097859179260
C         7.96883967865751   11.37186705293219   16.94770039929258
H         8.37877523247162   11.95527593656104   17.76484738811403
C         6.91335212680348   11.75844025128827   16.08920804104079
H         6.37482215698058   12.69692324934870   16.11578944018260
C         6.81096030928107   10.80025532252509   15.06280324337440
H         6.18282579857733   10.88412308861333   14.18482095097276
C         7.80865730265740    9.82490523042429   15.27431095245634
H         8.08369904382473    9.04149082836386   14.58168013304182
C         3.97971710482397    8.39869328785077   13.67955207077550
C         5.16516690724959    8.19262937241696   12.98029114800935
H         6.10779677162425    8.41349089712831   13.46246688209242
C         5.14585152157706    7.70350725054942   11.68788717551397
H         6.07518686641013    7.53850836087043   11.16190090366105
C         3.93651515729361    7.43157041631632   11.06939526454673
H         3.91725226323554    7.04817329920129   10.05984818469101
C         2.75150038597513    7.65913815902552   11.74871346484266
H         1.80580424441912    7.45535407329466   11.26743192200558
C         2.76894275878637    8.14676661697674   13.04348853691091
H         1.83726729626229    8.32292216959444   13.56132276825702
C         2.46769857697236    8.52588939947317   15.98771745965833
C         2.22681055818507    7.22594454861204   16.41148358005547
H         3.02002506392829    6.48998429502469   16.36791415149087
C         0.97804377118225    6.86546766468187   16.88583273208024
H         0.80250077473239    5.85178061095974   17.21569105539641
C        -0.04528404906056    7.79806708646153   16.93465748335148
H        -1.01917851297939    7.51395960204075   17.30499355750422
C         0.18275694795485    9.09600870260450   16.50703591096747
H        -0.61318099753761    9.82570499676693   16.54197178288266
C         1.43368853898572    9.45755373676140   16.04170662566948
H         1.61997483965150   10.47085564416216   15.70932067368127
C         5.82218269059996    5.99136294144114   17.53097398903752
C         5.06408569536495    6.50949439346183   18.57879936519071
H         4.30870244609166    7.26007294113214   18.36492581876505
C         5.24244434305897    6.04404789385400   19.86980537836026
H         4.64654985767672    6.44575041939908   20.67799447275614
C         6.17741045155202    5.05618132724718   20.12872598749106
H         6.32780569487484    4.70415937169635   21.13851815470967
C         6.91118472049735    4.51336502434987   19.08714682258282
H         7.63126839481427    3.73240035773115   19.28394205169324
C         6.72477520365781    4.96474715082180   17.79406326147069
H         7.28875937856343    4.52578686433459   16.98254394957068
C         7.15398281721653    6.39192427142475   15.11648418904913
C         8.30642328069972    6.78591674011756   15.78932246989105
H         8.23572342878963    7.19075286465218   16.79063295414085
C         9.54586158269935    6.63022363749890   15.19127007698700
H        10.43722108304424    6.93301218055864   15.72166565773993
C         9.64816083452298    6.08430380521737   13.92150114454048
H        10.61761641491304    5.96587686896409   13.45982203632999
C         8.50550978574572    5.68174773716208   13.25031037424944
H         8.58151029678692    5.24536493714416   12.26464058680959
C         7.26646334096294    5.83191275829375   13.84786857506337
H         6.37019752463469    5.51238577567397   13.33326029625852
N         5.29333194620340    8.20793124512138   16.12770405587186
P         4.10096617895775    9.14056350886458   15.36016707475727
P         5.44426032525669    6.53565520133720   15.81833993647837
Cl        7.64091816650894    8.39322375272975   18.76183922489911
Zr        6.23036949397891    9.62000662353474   17.30543176749884

