38
CSD_code = LULCUR | q = 0 | S = 0 | Stoichiometry = C13H21ClN2Pd | MND = 4
Pd        1.95274331439930    2.81248800708963    8.99762912910717
Cl        0.62007555204098    1.39000569251596    7.96586926630089
N         2.89546912829085    4.24949513508439    9.99295571155183
N         0.56173040086366    3.06886215735830   10.83366477510429
C         2.53446963879432    4.37586612459607   11.21312460704787
H         2.83209039498567    5.23663828594998   11.81332871032790
C         1.63145961941901    3.33422730615951   11.83335971860007
C         1.11130914063212    3.81994730177385   13.19165336677847
H         0.60737183836327    4.77954950423809   13.10267466837119
H         1.94494628881376    3.93505328530055   13.88019309816815
H         0.41935976451410    3.09844607135073   13.61821070267388
C         2.48489060305154    2.06418882151316   12.02505406678882
H         1.97292337203023    1.33687495138198   12.64956437672593
H         3.42441910381428    2.32637886144002   12.50872409936137
H         2.70822854402217    1.61574343080234   11.04117878097473
C        -0.30141135498441    4.22531088804853   10.59915880585977
H        -1.02488903194160    4.37189641571180   11.41326859627622
H        -0.85707820354902    4.05929138025308    9.67232554109574
H         0.29168937901748    5.13562014842212   10.48935961703052
C        -0.27218485355086    1.90736183476941   11.12318088752153
H        -0.84472871388921    2.02856767092003   12.05262986740904
H         0.32997737668696    1.00216852881764   11.17438095242265
H        -0.97062348985424    1.77998183459079   10.29555458116952
C         3.39273393968991    2.42916317449831    7.58791691807714
H         4.31411045851249    2.98397063308017    7.80081318060582
H         3.03301118053566    2.68406393060294    6.58547237013225
H         3.59766586906435    1.35184358237857    7.62073757101143
C         3.67674680618987    5.22160205235650    9.36485449805234
C         4.81211386008183    5.76601459957162    9.95837583499526
H         5.13053035135594    5.41508980357420   10.92964188260949
C         5.55080641879122    6.71835784895026    9.27882634388943
H         6.44041517950941    7.12739897481772    9.73418121360526
C         5.15387476606643    7.14635140956247    8.02363516312748
H         5.73383356677313    7.89079357646346    7.49971530663121
C         4.01825583144349    6.60979477644410    7.43400880698331
H         3.71184503162558    6.93933900134923    6.45286832132453
C         3.28533447933399    5.64409158407780    8.09319152859730
H         2.39788444905833    5.19546141418168    7.64491713365921

