68
CSD_code = LULVOD | q = 0 | S = 0 | Stoichiometry = C31H30ClCuN2P2S | MND = 4
Cu       11.65493385817238    9.02875602020341   11.03132125619464
Cl       10.74356853052155    8.59595092838152    8.89307723712091
S        13.97515717178492    8.88522815040037   11.05683284290383
P        10.23200078741130   10.20238241687851   12.28382527571066
P        11.03086393675363    6.90816492441823   11.80726293602985
N        15.26380987381862    6.70489836144308   10.43206039490617
N        13.25840344379850    7.06698398224289    9.26881696489788
H        12.40240854942727    7.66468016903768    9.09289682373494
C        14.18037538313822    7.46377572644775   10.20819102353122
C        15.41822420785001    5.59576219034009    9.76976112388362
H        16.30968588708933    5.02850768671073   10.00471766937675
C        14.50420236858657    5.13708910888964    8.80108875465150
H        14.65602387104737    4.21674864549980    8.26617249434739
C        13.41333172593784    5.93526947438660    8.57886328081058
H        12.64383917467326    5.70428586836002    7.85649463669176
C        11.44247403962546    5.22697104824715   11.25630665244240
C        12.52643639330306    4.57355457502396   11.84131006299642
H        13.02527003458122    5.02530915796437   12.68879735106099
C        12.95410734976819    3.35669199088935   11.34713029485270
H        13.78597179974151    2.85020224896475   11.81437783464770
C        12.31864432400914    2.78672057885081   10.25468600189753
H        12.65071812448208    1.83248974596113    9.87308146469339
C        11.26444175329299    3.44865131230049    9.64693248193275
H        10.77748601501643    3.01269337395875    8.78610963391420
C        10.83375655686237    4.66906870221581   10.13419581203927
H        10.02820817611047    5.19562845795202    9.64309205989088
C        11.20658916300319    6.75628439442104   13.61702474407614
C        10.53537427351881    5.79497148907507   14.36668744829761
H         9.91363443121851    5.06131041261849   13.87176771665679
C        10.67228317426595    5.77762849150905   15.74175495137357
H        10.14889031624245    5.03308262832514   16.32451743428658
C        11.47840139035972    6.71189475792345   16.37499002737793
H        11.57634670782619    6.69575374682582   17.45057157429086
C        12.16335921395802    7.65719752566714   15.63123193264343
H        12.79966779139883    8.37882076477668   16.12126861638023
C        12.02792069194850    7.67891893314568   14.25451157015686
H        12.56554313345262    8.40679742222958   13.65822091927608
C         9.18669990807315    6.92688223046673   11.62903913124284
H         8.98352078747170    7.14587498709569   10.57647437532893
H         8.80977202442334    5.92293293961833   11.85440203995799
C         8.48460830664127    7.95236282826280   12.51909202360087
H         8.87638630788441    7.87289590553041   13.53790242254464
H         7.42150039302379    7.69062957626705   12.55330439410580
C         8.59154245206317    9.39690523712384   12.02584895615930
H         7.82403380922166   10.02311923798040   12.49683320259970
H         8.42837387973600    9.43346076392862   10.94254761380794
C        10.36072996768287   10.49762871619477   14.07497447169537
C         9.39603304500318   10.20002215198512   15.02889434791132
H         8.44015092830247    9.78922238963628   14.73924729142296
C         9.65469646387934   10.44030638026276   16.36756769639178
H         8.90245965656436   10.20526731404449   17.10694071278788
C        10.86635151018375   10.98086062219905   16.76195809456080
H        11.05951532966421   11.16443103656493   17.80863838460524
C        11.83104250273100   11.28459235136777   15.81344691281982
H        12.77724053845871   11.70720118451246   16.11812288095123
C        11.58208977390883   11.03535476181595   14.47886987148788
H        12.33099942119401   11.24895999546492   13.72560694165218
C         9.83855574213106   11.86323061192465   11.65296949058157
C         9.15954490545597   12.81891697848581   12.40082622119163
H         8.86095943280740   12.59838329360040   13.41676711360968
C         8.87865140295934   14.05205352257313   11.84159765665833
H         8.35292371827769   14.79690693523106   12.42151844703415
C         9.26912539358269   14.33435365283337   10.54202697793462
H         9.04578347070467   15.29957555812958   10.11167813446729
C         9.94968572992407   13.38500227801435    9.79691533537624
H        10.25787127654548   13.60739096172879    8.78615712551838
C        10.24031337764029   12.15308400488923   10.35312680791166
H        10.78128492017601   11.40196617938728    9.79055562370269

