45
CSD_code = LUYMEX | q = 0 | S = 0 | Stoichiometry = C17H19Cl2FeN5O | MND = 6
Fe        0.06004863433403    7.18912511186927    5.47286254736731
Cl       -2.00942590352286    7.77029631580637    6.05631735475729
Cl        0.60906290517975    8.97500665838506    4.33009560614133
N         0.71775674825248    7.81586191655565    7.22666201234118
C         0.99949977481164    8.97882745039400    7.90098036406152
C         1.06548048657308   10.29206728382641    7.45209214337964
H         0.87772553398869   10.51730299400819    6.41528583488527
C         1.37274713552081   11.26086526704746    8.38435687116196
H         1.42945950382906   12.29345676110226    8.07566421528787
C         1.61140066366752   10.94519938489099    9.72417167223743
H         1.84753692158988   11.73898747657959   10.41717162684446
C         1.54965832227657    9.64551464648687   10.18660341803291
H         1.73078940627191    9.40286613771542   11.22293316578765
C         1.23755735775411    8.66662078059486    9.25697439378019
N         1.08721822648801    7.30175924750707    9.35458060260853
H         1.16590230776130    6.75178969067182   10.19304005315649
C         0.76898129733326    6.84768470321466    8.11151660036507
C         0.49382430459097    5.43086743473389    7.71763200024323
H         1.43671057546947    4.95170087165578    7.42711796379928
H         0.05347984182533    4.86584767145647    8.55301250043822
N        -0.36730573915683    5.50450000989525    6.54971401575564
H        -1.30564524377491    5.83767470770690    6.81314989008778
C        -0.47242911613554    4.34416654508179    5.68132165093899
H        -1.17370767022121    3.58220450186467    6.05317994810003
H         0.51898279184075    3.88320326065043    5.58657283435811
C        -0.90832515557807    4.86764047933486    4.34823838776595
N        -1.55589450998870    4.17401908391652    3.37022153083321
H        -1.87380840269682    3.22116681804011    3.42076229122291
C        -1.76320456587607    5.04872221031788    2.32791945301574
C        -2.36789698987580    4.90762456997366    1.08920862526520
H        -2.80154084434108    3.96976028799783    0.77621568278998
C        -2.39455847746120    6.02562012672447    0.27892341614729
H        -2.86078601233431    5.95907304932588   -0.69279094213870
C        -1.83846294456457    7.24139939126800    0.68416887719561
H        -1.89045448694225    8.08604776986951    0.01448970317736
C        -1.23123658857688    7.38940930353527    1.91378286204657
H        -0.79950094162606    8.31948325587831    2.24567398815668
C        -1.19638140506028    6.27376694889101    2.74091896897280
N        -0.67083116031056    6.11262361293247    4.00047625269999
O         2.15990862200357    6.64996393543948    4.98629875150256
H         2.19743661939211    7.60417785758080    4.75578857117876
C         2.50214691401720    5.94154533912551    3.81274846720249
H         3.55643526498708    6.10321975710192    3.56825089184763
H         1.88485631199632    6.25215152151480    2.96686301639411
H         2.34168968629456    4.88018785162807    4.00143191882871

