27
CSD_code = MABWIY | q = 0 | S = 0 | Stoichiometry = C12H8Cl2N2O2Ru | MND = 6
Ru        7.50881147008113   11.99274183170581    9.73636263391732
Cl        8.66341798556706   12.03899868279768    7.64078504281070
Cl        6.34513038065873   11.42718253548049   11.75243292175964
O         9.33166012334704   13.97634876237040   11.05529758398962
O         5.74059903260714   14.33464826353306    9.11475044044842
N         6.35013236433469   10.57633157594903    8.87137489249966
N         8.61208939320986   10.34330599886260   10.13706183143970
C         8.64843847871884   13.21173403287093   10.55836689024895
C         6.40536332929322   13.43674837217620    9.33929137944863
C         5.21931349256273   10.78845906852478    8.20751927367756
H         4.89051540237162   11.81593469739730    8.11670827717400
C         4.47400968767849    9.76685073200059    7.64427542019355
H         3.56328981481021    9.99439772807711    7.11464945545740
C         4.92323121387814    8.46255303101603    7.77732259882665
H         4.36990639922445    7.63880266698559    7.35375202181779
C         6.10145597768888    8.23681689834477    8.46438384464900
H         6.47403499723172    7.23237053702597    8.57774438629675
C         6.79942910652935    9.31646548837078    9.00326715147849
C         8.06557524709180    9.18355508421280    9.73344689157615
C         8.68123663894869    7.96080930489324    9.99611426249025
H         8.22653903527797    7.03869783250924    9.67446565679177
C         9.88258294399894    7.93650418822085   10.67977687971649
H        10.37176854060140    6.99897716986482   10.89404131206948
C        10.44085120211306    9.14016727190512   11.07999104753980
H        11.37772469914441    9.17373599707070   11.61178088386320
C         9.76952773189843   10.31516681722769   10.78820340504647
H        10.18366531112599   11.26829543061051   11.09163361477618

