46
CSD_code = MADZOI | q = 0 | S = 0 | Stoichiometry = C12H23ClN4O4PtS | MND = 4
Pt        0.79818923215205    3.15186052575340    3.43065596680103
Cl        0.54945051158854    0.90724804493385    3.43312434707199
S        -1.38070352684413    3.23877399310126    3.82518957435719
O         2.78518784166644    3.02150597540210    3.06055546745605
O        -1.92668204107432    4.58582264325063    3.95170943542780
O         2.65672406820526    9.29169470315646    4.83496655719488
O         7.25050820080643    3.13855530180830    4.18437102222151
N         0.96781945031147    5.13513206474616    3.44372946900176
H         0.09432747539374    5.63881735867326    3.53315430876464
N         3.27429995398552    5.33083460122706    3.02922319113833
N         1.97605150172577    7.20135418163285    3.04962102224872
N         4.87379796380536    3.75015782412268    2.81114427961654
C         2.04776979624372    5.84051535951090    3.19479333567921
C         3.56035604819340    4.03870265051943    2.99144913159045
C         0.94764794675104    8.01565541731642    3.66668817169597
H         0.02354596472747    7.46169512980728    3.82484029835023
H         0.74011142336023    8.85660561034662    2.99656011656068
C         1.46941646227309    8.55317185020356    5.00801612839887
H         0.74940974509079    9.23686685786646    5.46053601700072
H         1.64771066299095    7.70579341827889    5.68870292844627
C         3.66298360312684    8.51449590177805    4.21991903653571
H         3.93428354709204    7.66657637215876    4.86680058198729
H         4.52387443842801    9.17408243541192    4.10252038565142
C         3.18830631952028    7.97596458044718    2.86682431508021
H         2.95411239764393    8.81298319034850    2.20151820493668
H         3.94348845060726    7.33884346203407    2.41375094578259
C         5.92418730028212    4.73486905344529    2.91824465913733
H         5.47310900777506    5.72332698741696    2.96272454350024
H         6.57162108825885    4.65345179440018    2.03832199519885
C         6.74579073972795    4.45373261723761    4.18337002363460
H         7.61343097028604    5.11326025722728    4.23721863167519
H         6.10960267771480    4.61255823002872    5.06778002622046
C         6.20752494851119    2.19014204521792    4.11053219669515
H         5.55791104130500    2.27739057444214    4.99432132002893
H         6.68661308829524    1.21027504865021    4.10809729304524
C         5.36745488609947    2.38965166342063    2.84445190705389
H         5.99444081403695    2.22782517822376    1.96092550763121
H         4.52299079968261    1.70223974778267    2.82957354980701
C        -2.36526491170715    2.36370192497782    2.57681888051244
H        -3.40933940317188    2.39983253878243    2.86474923076172
H        -1.99103199391711    1.34735783975829    2.52893615503613
H        -2.22096168034245    2.86699106696278    1.62662402622279
C        -1.89416447887766    2.29834316697253    5.29047811685986
H        -1.43122710857988    2.75541088632097    6.15855063907493
H        -1.53636852638617    1.28337013491908    5.15950829324698
H        -2.97360669676662    2.34205978997409    5.37520876566004

