33
CSD_code = MAFYAU | q = 0 | S = 0 | Stoichiometry = C6H18Cl2MoO4P2 | MND = 6
Mo        8.34269231464788    1.79496378376742   10.21711144381231
Cl        9.16761883691310    0.04393063075623    8.94287635153817
Cl        8.24812939854863    3.15085168712255   12.09273715165358
P         9.74203113139934   -0.15401857782315   12.55181594913076
P        10.91628467147728    3.10272873858141    9.67826797836194
O        10.47825251852717    2.00434893459452   10.63735111440181
O         8.58810007234478    0.34040375283432   11.72224944012661
O         6.75114045709953    1.47310244128997   10.06997152329333
O         8.76309014171233    3.00955055265511    9.15295962366188
C         9.08209938381629   -1.46093283246968   13.63527015202407
H         8.28427103615393   -1.03523667154439   14.23994090924157
H         9.85462274960558   -1.86999716200414   14.27749389872917
H         8.66480117119235   -2.24758993236000   13.01055597152724
C        11.06308518327748   -0.90078585796529   11.54303016171869
H        11.54789275747046   -0.12504046612176   10.95360637009133
H        10.60652212578590   -1.61655699684147   10.85997685283397
H        11.78850819405753   -1.39585821512582   12.18136872390646
C        10.43929403864060    1.14181899676713   13.62633008406354
H         9.62143795352904    1.60237530999592   14.18004981690146
H        10.90872739291235    1.90592950396917   13.00984861111515
H        11.16504681713797    0.71177745919433   14.31034800043970
C        10.43980302426352    4.81913611183601   10.11339128782552
H        10.74586717519952    4.98053834141236   11.14724203374973
H         9.36964691593934    4.98988474535996   10.02121371014105
H        10.98118982037144    5.49904112331246    9.46062097794824
C        12.72509686619872    3.21757285105112   10.06950878965170
H        12.85822575438925    3.40395295151934   11.13243462351094
H        13.20372787395435    4.01564418035174    9.51125377079130
H        13.21095225128827    2.27605342201560    9.82313984253305
C        11.06054200290143    2.64482065309944    7.90685830196316
H        11.36202928333605    1.59610332878477    7.88059659330011
H        11.83002701867074    3.26119859461796    7.45008413562312
H        10.12164366726148    2.75688861741258    7.37079580444723

