37
CSD_code = MAJBOR | q = 0 | S = 0 | Stoichiometry = C16H13Cl2N3O2Pt | MND = 4
C         6.24848103743768    3.69180444372723    6.48000500685577
H         5.94738312767428    2.75774787404339    6.02364115945766
C         6.12647157951739    3.90652072752805    7.84005992082369
H         5.71819377610153    3.13258224637366    8.46910211705421
C         6.53577958672306    5.12244849560427    8.37347245090599
H         6.45363056643142    5.31809912003829    9.43132923344627
C         7.05064294196301    6.07956856761874    7.52008410445800
H         7.37955650788480    7.03815052522873    7.88700761935936
C         7.14333672446703    5.79694640330120    6.15968777654775
C         7.64740010050790    6.73093950549679    5.18177387604708
C         8.16241251081354    8.03313338113508    5.27945272587330
H         8.30494845305832    8.61816592632139    6.16327911627003
C         8.44447530807451    8.39402974689184    3.98325888931705
H         8.85640260863674    9.30304409282145    3.59363389854136
C         8.10379342030877    7.36543079008034    1.74299487514344
H         8.36810763315415    6.36159713835950    1.38992369521705
H         8.83844000087624    8.09571626848146    1.39312535849484
C         6.72245254257659    7.71522450215689    1.23068452882468
C         6.00031629645679    8.74937607707303    1.80133066427176
H         6.39632438599230    9.33488507466239    2.61894447151914
C         4.72516037788763    9.06156064274823    1.33731890212134
C         4.17006331555217    8.33404434022554    0.28839999393960
H         3.18061627111435    8.57823199588161   -0.06417958344174
C         4.89430368012542    7.30289416414037   -0.28064667633997
H         4.46759150053295    6.72821384900893   -1.08815062607661
C         6.16079113745425    6.98991368185475    0.18599144554996
H         6.71013107790296    6.16688543439464   -0.24241391208625
C         4.00187314406932   10.16819360718246    1.99827270853384
N         6.74522476425828    4.60959635626834    5.65340207958782
N         7.64062624168669    6.35248276828355    3.89235773839219
N         8.12270125833003    7.36137758666130    3.18142492725882
O         4.43070520624747   10.80221695345856    2.93253327366267
O         2.79854082211474   10.41873538868298    1.46289968172785
H         2.37335121604049   11.14972644493764    1.93740451246069
Cl        6.40118100678590    2.27066335765343    3.64313501759261
Cl        7.51592770503065    4.19425928267091    1.49043302415870
Pt        7.05746216621054    4.40479323900324    3.67202600452984

