50
CSD_code = MAJFEI | q = 0 | S = 0 | Stoichiometry = C14H30CoIO2P2 | MND = 5
I        13.63321724518775    5.44479206831931   -6.91406020844659
Co       12.12005427630213    7.30032232859896   -5.82523774507053
P        13.70362607987157    8.82467348234578   -5.81687531312061
P        10.42312081821116    5.90380270115972   -5.74329186211041
O        12.46864727200197    7.01169520021109   -2.96795626947740
O        10.78242189999841    8.85229697403619   -7.85938302085259
C        12.39041202554109    7.06087024280580   -4.11544640348789
C        11.34855235844550    8.15943139157289   -7.13402557064769
C        15.41842394539630    8.31746727603719   -5.37548542383379
C        15.54784820990047    7.51101475369649   -4.09218707292806
C        13.42918358401474   10.22594776446747   -4.64838735985425
C        12.03899907615640   10.83188492353470   -4.78143624833237
C        14.03778564396293    9.74577406446225   -7.37898373929521
C        14.32416020242885    8.85378772500013   -8.57988129675756
C        10.62350231967730    4.56554704490687   -4.49026140305072
C         9.56336239843210    3.47107969698468   -4.47149683856110
C         8.78629811582618    6.65626054637915   -5.34302694035815
C         8.82316013592526    7.47239284534613   -4.05923195760109
C        10.00847463602147    4.92378116876200   -7.24691217240249
C         9.98229568708605    5.71564412095566   -8.54577099529969
H        15.79628071377578    7.72259748532227   -6.21219115268878
H        16.00408690300995    9.24271887385561   -5.31235688573041
H        15.12877490170358    8.04052122003763   -3.23790813755984
H        15.04593797084965    6.55124645930769   -4.19255735874289
H        16.59864805077158    7.31453594874734   -3.88818846504884
H        13.56356846683350    9.83107069225621   -3.63608118379197
H        14.20194778964078   10.98103396837132   -4.82707470329741
H        11.88186669151050   11.60088363019580   -4.02741392859283
H        11.89835567591858   11.28217303864527   -5.76234022351448
H        11.27794645193890   10.06173543012204   -4.64882406477087
H        13.16204203445996   10.37110405853465   -7.58233870217733
H        14.89031903891801   10.40682096054929   -7.18205483573355
H        13.47312903338519    8.21374873079068   -8.80150163230317
H        14.52423352048439    9.46554013828537   -9.45773914278333
H        15.18573944864376    8.21402072822501   -8.40391774810591
H        11.60770077638813    4.12319807469789   -4.68125487077496
H        10.66882416643634    5.05464397915106   -3.51156303329770
H         8.56507246928779    3.87958332163342   -4.32780743148501
H         9.57773365877829    2.88880457965805   -5.38876545995924
H         9.76839969509134    2.79400734174992   -3.64411509039171
H         8.52434329412762    7.30199349919519   -6.18817281739846
H         8.03527951135207    5.86325284516788   -5.27985840353826
H         9.01971834469905    6.83708103822375   -3.19746644633386
H         9.60944589924300    8.22649133415323   -4.11321074338759
H         7.87399823804666    7.98061957483372   -3.89936882223102
H        10.75991424369549    4.13107325626610   -7.31834121308058
H         9.02905509794661    4.46909226380530   -7.06259722140995
H        10.97455432782099    6.09392068619375   -8.78234950040821
H         9.67147673581233    5.06838910681264   -9.36376203138274
H         9.28836091893717    6.55323141662707   -8.49204090872510

