27
CSD_code = MALCEK | q = 0 | S = 0 | Stoichiometry = C12H8I2N2O2Ru | MND = 6
I         6.07676616500777   -2.26390544539657    6.14108215900583
I         7.87613330845348    2.81751732843301    6.74506591312346
Ru        7.07083796456488    0.22845486669843    6.56841513610600
O         9.86557709491196   -0.80727856197826    6.95702942513620
O         6.81171750028557   -0.03418216212024    9.55138920273653
N         5.18359258576183    0.94325316652504    6.18567200746010
N         7.13537874492184    0.45108107542569    4.52755053657554
C         8.80738725840255   -0.41430681800565    6.79458225940352
C         6.89558013704764    0.06998458920672    8.41880498120001
C         4.24085705707647    1.16576730621027    7.09798817066939
H         4.49864455445010    0.95595188243224    8.13008366982572
C         2.98278632002608    1.64085267381966    6.77811960126869
H         2.25678683631538    1.80331924907882    7.55755148084905
C         2.68552352387456    1.89767159808148    5.44800083487602
H         1.71444165692870    2.26781876557055    5.15940564862797
C         3.65999453337906    1.66982587631068    4.49522723684003
H         3.45336513859960    1.86127755331058    3.45578192281850
C         4.90788736154650    1.19078695533611    4.89039933117187
C         6.00715717474251    0.91792992307980    3.95819034557313
C         5.92101723390909    1.11804914045678    2.58145286432757
H         5.01308848462418    1.49372053691089    2.14061759874358
C         7.01146211754748    0.83173213135010    1.78255102073481
H         6.96198719348774    0.98130500814934    0.71555891332510
C         8.16620904372045    0.34995223478855    2.38087426599573
H         9.04227616150160    0.11174974553424    1.80057427428302
C         8.18133800315999    0.17664087976227    3.75218384502306
H         9.07150684575589   -0.19816949896776    4.24494735429866

