30
CSD_code = MAPHAN | q = 0 | S = 0 | Stoichiometry = C13H14F2Ti | MND = 12
Ti        1.93509048775222   -0.06015688741583    1.90015367051152
F         3.40677574499858   -0.88741604819088    2.34506154945096
F         1.63463334124546   -0.91859473876922    0.41010405761648
C         1.53860867389085    2.16658301495915    2.23903146089528
C         2.91207155786903    1.95399977026623    2.52371896986533
H         3.41140125185238    2.12694633085382    3.46823512848699
C         3.57524887919191    1.65665210819083    1.31314244551503
H         4.64251801135659    1.52763357367725    1.19404877346330
C         2.62004355811948    1.64292767848147    0.28401898518557
H         2.82018217905482    1.50146125532211   -0.76946484944621
C         1.35965569493921    1.93116045371813    0.85118382886830
H         0.45286840016718    2.08467138960842    0.28061758758074
C         0.32540619249588    0.61796084723208    3.37563309799885
C         1.22273490679771   -0.20275361909878    4.10633816414298
H         1.81714338499461    0.09060904304538    4.96194792771004
C         1.07619971751307   -1.53235331880207    3.65398947118749
H         1.56493587564317   -2.39960571203516    4.07695404825479
C         0.12453538066480   -1.53984345644923    2.62156660172102
H        -0.25047800348997   -2.41395153496447    2.10665106801549
C        -0.32311670591128   -0.21502871052187    2.42754965081399
H        -1.12957549364846    0.06746303564422    1.76333199299357
C         0.42187357853883    2.13514858235950    3.27507773394471
C        -0.87292218683872    2.78321863552944    2.77717811304673
H        -0.71906281572823    3.85077150069512    2.63498549598512
H        -1.66172203099560    2.64125916135489    3.51288676662974
H        -1.20599064990732    2.35889110629616    1.83483242300225
C         0.81711273011126    2.79559389416770    4.59869445606116
H         1.73488931114700    2.38038828624708    5.00414516293236
H         0.02554248850144    2.65331534055786    5.33137348694771
H         0.96299653967406    3.86314901804065    4.44831273061869

