32
CSD_code = MASSEF | q = 0 | S = 0 | Stoichiometry = C15H10ClF4NZr | MND = 12
C        -2.66604465768802   -0.18354584302983  -10.64081627114038
H        -2.89215435092804   -1.00414618945453  -11.31157755878876
C        -3.39901685788987    1.01821641198680  -10.52954740327641
H        -4.27733709169217    1.27734991922954  -11.10947272884432
C        -2.71088773857965    1.86971899203009   -9.63511450050047
H        -2.93032175123066    2.91743826901725   -9.46630314374838
C        -1.55357379295067    1.19224763722563   -9.18908992705645
H        -0.75704631558812    1.62073779351338   -8.59431469306575
C        -1.52455878696721   -0.07764131066191   -9.81274343985412
H        -0.69726204858437   -0.77789579373258   -9.78637291879845
C        -4.93898756924162   -0.15102222012196   -6.24707850237275
H        -5.52906197487871   -1.01296515924301   -5.95779410109629
C        -5.39846743080170    0.94631628659905   -7.00513125893785
H        -6.40128687968532    1.06795879897600   -7.39574403786655
C        -4.36289619909774    1.90436029951846   -7.06640127990919
H        -4.46696941784441    2.91483261792933   -7.44498913812157
C        -3.26082091464945    1.40457073672177   -6.33072586206980
H        -2.36117891809868    1.95276269550628   -6.07950168378102
C        -3.62013533077583    0.13539766117935   -5.82078596971482
H        -3.05119186443445   -0.44154295905360   -5.10102563684718
C        -2.51211753754917   -1.97435949725396   -7.70456480333457
C        -1.30448172029456   -1.81586213386725   -7.03699701209683
C        -0.51751974315435   -2.86710982267524   -6.58504538686272
C        -1.01704080878134   -4.14764237149174   -6.84675272314238
C        -2.84008422511851   -3.31620429877130   -7.87417617447098
N        -2.14642765200023   -4.36331831534246   -7.47567058053129
F        -0.92173590914967   -0.50842518262779   -6.84768811392429
F         0.64091782817527   -2.67824512033570   -5.94310831334738
F        -0.33496791772650   -5.21674582944816   -6.45244098725601
F        -3.98599887109964   -3.57860100337721   -8.51566768352121
Cl       -5.38585638361837   -1.05137839989715   -9.31765988681741
Zr       -3.51228716807675   -0.08005666904709   -8.30059827890460

