46
CSD_code = MAXYIV | q = 0 | S = 0 | Stoichiometry = C16H22CuIN6 | MND = 4
I        -4.23953570343748    1.84488852630154   11.20091169387307
Cu       -3.92856496078254    2.42089990460183   13.58450789577156
N        -5.31934988777412    3.20679173792026   14.98774183596803
N        -4.81161236295515    3.63917188342961   16.15533655823820
N        -3.34956734101458    1.18659467665372   15.21613426662326
N        -3.48434740203579    1.71686012658671   16.44445933813170
N        -2.60465998745321    3.82047755187002   14.48285882687712
N        -2.48451623338006    3.75467857258587   15.82051099830310
C        -6.42432941563310    3.89124361026617   14.76613696133917
C        -6.63633920498648    4.79698860836986   15.82682478046116
H        -7.45155893550831    5.48291677557064   15.93230490115899
C        -5.58561780543613    4.62305929023940   16.69415647320199
C        -7.26143868429156    3.67218252037278   13.56259475586933
H        -6.74957262421546    3.00548792283701   12.87470733339899
H        -7.45724251383989    4.61907612725871   13.06301029003270
H        -8.21776773932400    3.22976269540892   13.83950427398766
C        -5.25377320482661    5.30212137680375   17.97249423038302
H        -5.18800073433471    4.58888269552988   18.79554114603967
H        -6.03175640727703    6.02299447007247   18.20659195262153
H        -4.30415258068424    5.83358303051378   17.89724079445511
C        -3.45306497595126   -0.12176306184712   15.34327046788636
C        -3.66303355654989   -0.44665254916711   16.70001536808645
H        -3.77962055924070   -1.42663621784670   17.11504366342693
C        -3.69037625359151    0.74676500353878   17.37932941176944
C        -3.34435263094855   -1.03964858704317   14.18443950468396
H        -3.32371337276751   -0.46694209098365   13.26182097465007
H        -4.19296317096410   -1.72077866953491   14.16310523870214
H        -2.43350677329975   -1.63343769857863   14.25352121265087
C        -3.89516135081223    1.04442002274051   18.81976444533777
H        -3.04659133807503    1.58845990642302   19.23734177095534
H        -4.00479979707542    0.11164250187297   19.36531551004156
H        -4.79701689989223    1.63911175129689   18.97115636391981
C        -1.47352019602343    4.30960216731691   14.01382820182107
C        -0.59291004083803    4.56692074094949   15.08556923041347
H         0.39650581538393    4.97075800395023   15.02094219981185
C        -1.25950644641903    4.19267707749344   16.22667641516802
C        -1.24909534464100    4.53208782080993   12.56558752564941
H        -2.06779448796127    4.10210535746827   11.99593887942331
H        -0.31501646225467    4.06860217981907   12.25384534449729
H        -1.18834145762864    5.59820917634060   12.34945978375487
C        -0.84018129896681    4.21040536497420   17.65118184100789
H        -1.51116403072725    4.82317897881087   18.25511455514377
H         0.16053213917830    4.62633699797652   17.72390776356619
H        -0.82405939323936    3.20159855234478   18.06585585293121
C        -3.53300961823969    3.14741971276372   16.59781036389186
H        -3.39363476926408    3.40259545491912   17.65468880407396

