44
CSD_code = MECPAM | q = 0 | S = 0 | Stoichiometry = C14H21ClMoN4O2S | MND = 6
Mo       -0.04998997664637    3.78676578307935    0.60986199525712
Cl       -2.30782999505263    3.78650391679899    1.21165577468278
O         0.48144938277962    5.12765110178905    1.40034337050827
S         1.84792841907718    3.79028580060678   -0.98470957970890
N        -0.90721362886877    5.16617013871973   -0.96864987609657
N        -0.90397342319455    4.96132790444167   -2.30205996825160
C        -1.63743688007061    6.05974615102387   -4.43451173129556
H        -2.23101528471171    5.22186124428818   -4.80073468887001
H        -0.67234510950943    6.05093112974287   -4.93919972955868
H        -2.15160432852718    6.98039430248533   -4.69489103580133
C        -1.47700781697668    5.99856369226491   -2.95977996246276
C        -1.85692181126282    6.90311012151155   -1.99570063175877
H        -2.34272809834601    7.84413824829120   -2.15063385921445
C        -1.48618229256223    6.34555655200869   -0.76175118862018
C        -1.68906595915494    6.93803496099418    0.57812892142761
H        -0.82347911620910    6.71983529054388    1.20739685569189
H        -2.56480988984132    6.49396836699797    1.05431406182654
H        -1.83442270774017    8.01193895817020    0.49469900552503
C        -0.29928352998463    3.78706529331349   -2.87169687423702
H        -0.54176316921999    3.78711156897547   -3.94206178199719
C         1.24955134265151    3.78702208074329   -2.74502554330296
C         1.80319014835863    5.03966698922884   -3.42239191909279
H         2.88306031129602    5.04034554448508   -3.31313478988193
H         1.42226868175390    5.93874751817608   -2.94418043424794
H         1.55676136570494    5.05658335452204   -4.48379466629306
O         0.48262272464888    2.44541209971559    1.39879132192756
N        -0.90631649923900    2.40726032238008   -0.96891476974676
N        -0.90389045132433    2.61269544212073   -2.30222193118701
C        -1.63819518335936    1.51507524162270   -4.43478426917464
H        -2.23196690009123    2.35301963517189   -4.80051467250984
H        -0.67328681643209    1.52410774408327   -4.93982465826654
H        -2.15236389326391    0.59448463755847   -4.69532403047941
C        -1.47722075218496    1.57572215706246   -2.96009147571642
C        -1.85668671747417    0.67079800223025   -1.99619154747347
H        -2.34263678460755   -0.27013209379324   -2.15125798444167
C        -1.48525964751425    1.22780704639564   -0.76220466494919
C        -1.68767289577940    0.63477213920088    0.57749842188893
H        -0.82199089960268    0.85294586117641    1.20663845783597
H        -2.56340283548368    1.07849839361810    1.05403571117186
H        -1.83285843213815   -0.43913298021917    0.49370332440019
C         1.80305384518609    2.53218508904879   -3.41839097915960
H         2.88297250226510    2.53203928510187   -3.30959768524705
H         1.42245490948690    1.63459911161931   -2.93710326950022
H         1.55620809316505    2.51171685270193   -4.47963702360023

