53
CSD_code = MEGGAH | q = 1 | S = 0 | Stoichiometry = C18H22BrN8NiO3(1+) | MND = 6
Ni        2.47399377616256   11.51329752329992   11.02503760354813
Br        4.34898185388391   12.05441891252855    9.76520995310635
O         2.05655225395958   14.01203230210431   10.91858273055917
N         3.56531420402261   11.67917566144614   12.52101373949501
C         4.54365194964360   10.89577752825922   12.98383919498425
N         5.17188465997967   11.51893272965581   14.01636510327533
C         4.56478421778287   12.70898691014298   14.20295887832644
C         3.56768087953447   12.80294138897065   13.26760306585010
C         6.29447913734640   11.04605238558290   14.77702467948816
C         4.96776037584212    9.56709253449764   12.51608047545628
O         5.97960990027098    9.04784825789197   12.96303910076237
N         2.92175203993169    9.26075033425306   11.11914194383295
C         4.12438954786952    8.87776730178380   11.54872050463947
N         4.45730584982635    7.66815450369401   11.01330283326316
C         3.43184188883746    7.29068895204557   10.22682103469484
C         2.48381572409931    8.28602602924780   10.30409018588187
C         5.67404742603047    6.93218110626139   11.20904235249523
N         1.38095213290587   11.37494113076563    9.50021388713662
C         0.12443672416926   11.81709902578155    9.38411264408787
N        -0.30111427957442   11.67020749618174    8.09980750730468
C         0.70582791070994   11.10090366880100    7.40731432399340
C         1.74747096271508   10.92264688867344    8.28276366898232
C        -1.57743852360777   12.04090064017467    7.55538028657070
C        -0.75682407624556   12.31074055893176   10.44251674398550
O        -1.82587356955721   12.84626704215121   10.19010840233804
N         0.82047387301950   11.48662904806488   12.19038076445056
C        -0.33446285410258   12.03079304728862   11.81104032712458
N        -1.15410155069989   12.19176873964968   12.88507677282765
C        -0.49300360005652   11.72011622480666   13.96070755484386
C         0.73337443739377   11.28551400035780   13.51786039106156
C        -2.47427421350415   12.75580255991465   12.89511001266450
H         1.48285714271836   14.35260634817599   10.22749825699218
H         2.95771468875331   14.24197158010113   10.65058561106085
H         4.87219322237631   13.40212773133807   14.95896652810480
H         2.88132956535877   13.60882986059687   13.09079627920391
H         7.16897922466491   10.94423031134449   14.13328652134461
H         6.08311432833675   10.06587120397049   15.20465576128948
H         6.50595513379672   11.75752142262069   15.57287795914395
H         3.43423337073986    6.37256308373287    9.67577106653790
H         1.52589123362634    8.33503229695799    9.82500665487193
H         6.53386891129552    7.55529608174027   10.96096573694702
H         5.66417261142945    6.05018481735465   10.57194072969943
H         5.77206786370582    6.63100289722919   12.25281926060924
H         0.63273082322727   10.86807191029633    6.36485948388738
H         2.72003992839722   10.51880219374136    8.08156922768395
H        -1.62936840701609   11.71226280441583    6.51958791210828
H        -2.38496407224414   11.58258340318967    8.12689967428138
H        -1.71158915170831   13.12219114972349    7.60289738494616
H        -0.91650220832397   11.71836740276994   14.94426330883484
H         1.52215503244955   10.83464255458654   14.08601931861430
H        -2.87118338829461   12.71743623102711   13.90733755705365
H        -2.44606413037065   13.79014196982800   12.55069537545993
H        -3.12992078148130   12.20160831204420   12.22253372430159

