40
CSD_code = MEHWOO | q = 0 | S = 0 | Stoichiometry = C14H17IN4O3Ru | MND = 6
Ru       -1.86960731234998   13.10789351260769    5.66536667064377
I        -1.12076000407658   11.21030069493883    3.70189493278746
N        -2.13950627664801   15.74013430747223    4.02467546333268
N        -3.33273268802879   14.21791058987381    3.10515950152529
N        -3.96303471033604   11.10149243924202    6.81344866297559
N        -4.82374454405897   12.01186841437026    5.07498395549846
C        -0.89050422465658   12.05298100415478    6.84317366967457
O        -0.08471577290611   11.52186201128775    7.46163681765616
C        -0.18007365148462   13.85582606418943    5.51763197856886
O         0.91617231304329   14.18765665869732    5.47404606997296
C        -2.42309882087984   14.34857434784434    7.18169835538719
O        -1.65788872288850   14.63478903063096    8.07491429707918
C        -3.84803968733362   14.91989550634001    7.23546382230305
H        -4.53662879916863   14.12919681216779    7.53415463400491
H        -4.16319578076366   15.30536479982666    6.26723040504330
H        -3.89269930605451   15.71628512351824    7.97890723678272
C        -2.58257472877269   14.47070485258731    4.20625489058566
C        -1.32483839012526   16.53247582991582    4.91007812400116
H        -1.35658420153654   16.13034392706294    5.92209818211854
H        -1.70317767673574   17.55559208705651    4.92380541499055
H        -0.28733188223582   16.54917803940064    4.56858351408007
C        -2.59119422937915   16.25000106835189    2.83604875970640
H        -2.33918217506363   17.23602894129775    2.50460600920798
C        -3.34913844145272   15.29328680788394    2.25900943628304
H        -3.88016829641883   15.28625510375469    1.32989148668892
C        -4.14251990824841   13.04642385049452    2.89993084927424
H        -3.51502337737795   12.14934006259353    2.87164181599450
H        -4.63584721250770   13.15029811682222    1.93227117298568
C        -5.19358468091498   12.91211738320043    4.00871685030133
H        -5.40076842681672   13.90474017515585    4.43011040831240
H        -6.12113797990960   12.52631922240682    3.58049055279064
C        -3.73139258451423   12.06605026705382    5.88752084667611
C        -3.16332247408638   10.76708297002738    7.96366309280107
H        -2.35531243190812   10.08325908261456    7.69371594939457
H        -3.79876179255285   10.27553182026613    8.70015882852440
H        -2.74176573125724   11.66893501143152    8.41145746286978
C        -5.14126753068483   10.45087984483337    6.56807222197657
H        -5.49047772027168    9.64491878402317    7.17944352144907
C        -5.68544453392155   11.02349748273187    5.47572003170231
H        -6.59832560471515   10.81120795186470    4.95922410404768

