53
CSD_code = MEPGOE | q = 0 | S = 0 | Stoichiometry = C26H23BrN2Ni | MND = 7
Ni        5.62932515971371    6.60184328616318    4.59546473912131
Br        7.56248196807478    5.63905910038843    5.14267102678325
C         4.62336802941060    5.01377133103965    5.00325167892185
N         4.32758715118375    4.53226728744481    6.23037202552934
C         3.69177026853009    3.32626805780145    6.12974187627428
H         3.36659848235443    2.77657518231890    6.98872308567267
C         3.59957942462637    3.03853706091750    4.81159877045133
H         3.18602981372151    2.19186008991593    4.30444611484465
N         4.18429950545767    4.07554503062373    4.13815859023880
C         4.80655870580582    5.09714294509747    7.47196760556998
H         5.86477800711045    4.83097988486381    7.58411135328591
H         4.23962359419586    4.63994436037243    8.28941071960466
C         4.65996414686444    6.59704684121807    7.53434218726678
C         3.40101756894006    7.18048450062728    7.41320659295188
H         2.54541133238402    6.56060938062244    7.18185193030515
C         3.24036672027998    8.54100571799599    7.59940576896570
H         2.26081425345620    8.98644424099758    7.50232363928165
C         4.33199347947309    9.33073948277019    7.92497110774095
H         4.20177731227656   10.39136484736591    8.08536746493417
C         5.58886070456987    8.75967063108117    8.03589777892911
H         6.44379816919870    9.37416849407968    8.27683533945541
C         5.75732879668434    7.39908820921210    7.83309897588669
H         6.73758583534725    6.95505906909809    7.92879855439605
C         4.44141886548532    4.05535406623556    2.71432311070893
H         5.07595345578251    4.92060078981632    2.48453645015298
H         3.49996154298112    4.14835622980092    2.16385561447986
C         5.16071878504078    2.78636931990588    2.33515314324608
C         4.57207344757147    1.85439509466525    1.49295726591157
H         3.59033121005588    2.04464912078250    1.08123743005842
C         5.24057822917827    0.68542230724270    1.17159360868403
H         4.77725768076429   -0.03373745190702    0.51211649917000
C         6.49721019242505    0.43936166553475    1.69705175249231
H         7.01632947700641   -0.47416680158496    1.44779364650626
C         7.08774496507327    1.36717916997634    2.53940983182603
H         8.06898591860498    1.18376629518301    2.94918503257185
C         6.42457954925586    2.53807055824536    2.85744527182467
H         6.89060893799354    3.26244369872766    3.50933524033542
C         6.42499218183405    8.32812774188547    3.87697565763529
H         7.40032061848687    8.75300483026617    4.07529966332368
C         5.25015644030538    8.61404310722464    4.59867174051261
H         5.18822698800683    9.20905931244965    5.49548157670630
C         4.18314391885451    7.95438439908242    3.96991783904048
H         3.14442325571240    8.03697986591870    4.25671007226196
C         3.94613262045932    7.09885246436421    1.52044462963894
H         2.87428309893950    6.95476022784792    1.54567300720995
C         4.67115292112222    6.84462414031557    0.36705682581491
H         4.15641265908064    6.50557113386504   -0.52038605860742
C         6.05044749079722    7.02260478707455    0.32794752867485
H         6.58462569195092    6.81025391082463   -0.58631159242679
C         6.74821060681861    7.48160904929310    1.43351130254389
H         7.81832853143990    7.62608452337728    1.39371886342988
C         6.03681292193894    7.76667450384208    2.59222233789489
C         4.62605936736120    7.55122690773073    2.64315578195309

