37
CSD_code = METBAP | q = 0 | S = 0 | Stoichiometry = C13H20IIrN2 | MND = 6
Ir        7.56898632575495    3.45670710163502    4.42988852599674
I         8.64404192831482    1.56093897023486    2.89543989442584
N         8.30108345841870    5.37413593554935    2.20802189212438
N         9.97886184845167    5.08264047356802    3.52009825037267
C         8.68125262758143    4.74135096740034    3.34082538516968
C         9.34185144068892    6.09987313023964    1.69127394949699
C        10.39636662860259    5.91536173898926    2.51732036359039
C         7.01690512978196    5.23990022618139    1.57778820059450
C        10.82220192656558    4.56186071167002    4.56159866134779
C         6.29412930244990    4.97651397349775    5.20290669719940
C         7.42772666952555    4.83825343571646    6.02303399812752
C         7.43112812016909    4.14744522036542    7.36631919886526
C         6.75889298936907    2.76275542195493    7.33912311407341
C         6.86537916495998    2.09838052603436    5.98589353545878
C         5.89837413338175    2.21227588735674    5.00605918729970
C         4.64688758786969    3.04933043833607    5.12516450602518
C         4.91957167577136    4.48684436063384    5.60541518935127
H         9.24969554927456    6.67149109790421    0.79124223345732
H        11.39428707614500    6.29963473156090    2.46873810503986
H         6.40730996611381    4.56076512057817    2.17545341879902
H         7.13256817097990    4.82203746957431    0.57632824497274
H         6.51893129387479    6.20865056307047    1.50538807218188
H        11.83637634632439    4.93107694713610    4.42427808636898
H        10.82926804230084    3.47109057504552    4.51916364956157
H        10.45746819235099    4.86783190935294    5.54293717674528
H         6.27509377947101    5.84950228946886    4.55252070267315
H         8.16928198403893    5.63583470128065    5.96304359061674
H         6.94228276112351    4.78859422283537    8.10928475926687
H         8.47129958719239    4.03041194102755    7.68218549764485
H         7.23497161969962    2.12529081946118    8.08716160112761
H         5.70602052788934    2.84724971380270    7.61401423863425
H         7.50750384742506    1.22060143028767    5.96410696603409
H         5.80178971014714    1.40060197399374    4.28700513388978
H         3.94226832014514    2.55337621852502    5.80205672502480
H         4.17022475891940    3.08701699902052    4.14214542117073
H         4.16402961756528    5.14941236312825    5.17689038549760
H         4.82008789135831    4.55016039358461    6.69058544177114

