36
CSD_code = MEVKOQ | q = 0 | S = 0 | Stoichiometry = C18H10AuBrF4IP | MND = 2
Au        2.90879315372321    7.18969980883550    2.00051101093044
I         3.77408140356384    9.39999870364323    1.07511855663265
Br        3.49009993161264    6.31784406609720    5.36951785532778
P         2.13408448302120    5.18634500968935    2.70688712652542
F         1.50635743521077    6.61970284145823    7.57160486311610
F        -1.15152662870978    6.01906624898057    7.62798795418939
F        -2.33397370830586    4.95169621273632    5.40513303368827
F        -0.90597752630410    4.49516684837417    3.19564157619749
C         1.08430484060795    5.30512651571525    4.20146527434315
C         1.66345816662504    5.86470791453724    5.34709441471483
C         0.92061916509746    6.10029883911338    6.49545850266759
C        -0.43734650807755    5.79638234423949    6.52868094357525
C        -1.03662559354023    5.25490885028281    5.39549362125037
C        -0.27953454421832    5.02142056197182    4.25065754520329
C         3.33902583284194    3.92141749171985    3.19000136396988
C         3.06196655423846    2.92477571105349    4.12194094382956
H         2.09668664118436    2.88758872634746    4.61071922412651
C         4.03108846574333    1.98522219408880    4.42080866626815
H         3.82033269403557    1.21286336792440    5.14537091717102
C         5.26779347180246    2.03446359013264    3.79658784145000
H         6.02001319880658    1.29945947854725    4.03887737110377
C         5.54274615207263    3.02531156260045    2.86817670481705
H         6.50751243163050    3.06648619658016    2.38641947647540
C         4.58074277362790    3.97091076347513    2.56540225137527
H         4.78706448244411    4.75907589983181    1.85217040171701
C         1.12974905159096    4.35997512798300    1.44702146664082
C         1.06869454975481    2.97674529474485    1.30935270911755
H         1.61526060732722    2.33605350357301    1.98711700802194
C         0.30388803927940    2.42749227584532    0.29719982573469
H         0.25313745455071    1.35429623930861    0.18986450505860
C        -0.39343517955556    3.24658598867220   -0.57660417668364
H        -0.98958181465267    2.80937166084884   -1.36306972160615
C        -0.32336306210615    4.62446918126624   -0.44823180194715
H        -0.86111223210242    5.26328654229397   -1.13210418595759
C         0.44321428550185    5.18229266517385    0.55621744513644
H         0.51276153170379    6.25859177221956    0.66000948584214

