33
CSD_code = MEWRUB | q = 0 | S = 0 | Stoichiometry = C14H8Br2N2O6Ru | MND = 6
C         2.85720702711437   11.63006620845651    6.75259482569202
C         5.09052437813821   11.49009964102572    8.01369504633207
C         6.36715759208891   14.25106935018546    8.80846134954228
H         6.69203240777464   13.23221647058357    8.98328813326702
C         7.13127865827956   15.30791367663240    9.26440587395943
H         8.05170999580386   15.13131946235079    9.79528975369804
C         6.68304963542455   16.60385981225479    9.02240320128880
C         5.49041860904400   16.77930526033813    8.33380362281020
H         5.14336505071069   17.78251732542531    8.14757792546132
C         4.77873500438100   15.66308392073243    7.90737764850561
C         3.50881970390611   15.74337068572532    7.17900826990075
C         2.89947631730442   16.94370157964477    6.82941138498482
H         3.33678673973242   17.89793398858856    7.07388852641759
C         1.69278121522961   16.91993031805267    6.14335057244720
C         1.12726772083774   15.68736849889308    5.82719291964088
H         0.19100446911822   15.62805378548449    5.29793778313039
C         1.79566415396545   14.53944962194794    6.20709011126133
H         1.37910048141191   13.56693624262027    5.97274276061565
C         7.43261931606833   17.81122269553236    9.47512040086020
C         1.05380212421874   18.21592272724237    5.77372817444440
N         5.22222658813324   14.41302923346814    8.14857349511467
N         2.95425487237761   14.55592709804398    6.86281749661066
O         2.15920462843252   10.82939691767961    6.34319098215101
O         5.72428138537402   10.60658437602618    8.35104689482165
O         7.06654125938275   18.93760234110057    9.27022285607569
O         8.55201525519747   17.50666036626471   10.13143569509777
O         1.52786121428290   19.28942388041069    6.03302188796167
O        -0.10048341940383   18.05550141246453    5.12690963248652
Br        2.79123953263590   13.06622406498658    9.64690601168194
Br        5.27904101194996   13.14870577688809    5.24600162653567
Ru        4.02646441679111   12.91478964488808    7.44037830282195
H         9.01273903359169   18.31396160302031   10.41080928866124
H        -0.48748637929454   18.91705201304154    4.90311754572155

