59
CSD_code = MIBCEH | q = 0 | S = 0 | Stoichiometry = C18H36BrNP2Pt | MND = 4
Pt        2.99254864579609   12.59116950347424    2.87371469555895
Br        5.17537767580329   12.41468285527533    4.10968243445478
P         3.18691063452856   14.86252522049460    2.96463317938643
P         2.91684909600874   10.31219363659525    2.84131176868576
N         2.31283790233415   12.97584218242798   -0.15819860748474
C         1.18351567120085   12.74066851261458    1.95391700823821
C         1.12548195903019   12.87115518613076    0.56060575221816
C        -0.10534063576229   12.96728721562859   -0.08080230128276
H        -0.13603513465382   13.06214018756925   -1.15837971061075
C        -1.27784546857627   12.94531791864859    0.65304497629127
H        -2.22874919703424   13.01999987272659    0.14514113423322
C        -1.23045317694644   12.82598233345852    2.02882273661026
H        -2.14303040260575   12.80834953781994    2.60743627338144
C        -0.00062624588903   12.72465227161972    2.66799204870452
H         0.01881563416848   12.62996957599806    3.74788646638992
C         1.48299542920075    9.51075744510651    1.99111551013215
H         0.59652284260874    9.82320743622019    2.55087813613982
H         1.39759022937924    9.97203829680552    1.00307242126130
C         1.51947300228683    7.99458141190952    1.85858991944819
H         2.31464790386718    7.67538754471115    1.18870651182185
H         0.57478258118425    7.64190840691930    1.44800343589702
H         1.66550137619428    7.51280319196324    2.82309320403941
C         2.84483494732897    9.65635276390972    4.55844767659822
H         2.57268433766406    8.59805693668584    4.55854459430873
H         3.84902446699058    9.75482957643237    4.98008563807968
C         1.86219825078504   10.48452574954878    5.37770879475048
H         2.13732235093829   11.54119601314099    5.30694900009979
H         1.88466226723144   10.19484801189398    6.42645473652911
H         0.84530517922769   10.36841490753742    5.00633478072270
C         4.39840603015803    9.44889195208432    2.16985487555777
H         5.24115525709365    9.72595106140335    2.80908931334315
H         4.25379091441808    8.36829520064386    2.24489086714759
C         4.68367401923882    9.87625867232408    0.73533000488519
H         3.83997187709235    9.65701765639449    0.08215720057016
H         5.56230385924947    9.36379168929234    0.34830596303753
H         4.87907899149442   10.94870296154403    0.70380070079627
C         1.92547399042916   15.86303745292073    2.06159587919125
H         2.04838367133738   15.61298747238938    1.00394983033712
H         0.94815201050467   15.47379200867226    2.35949393483786
C         1.97141759882357   17.37163859959972    2.26011545991059
H         1.76291753678396   17.64151318755585    3.29263599496780
H         1.21701107309380   17.84341775478224    1.63303720232633
H         2.93923776579821   17.78392292970432    1.98373250764414
C         3.17385445632504   15.51993556630505    4.68177265761032
H         4.02900850615353   15.07025416882201    5.19522358038550
H         3.31687056418402   16.60349083681346    4.67026993029745
C         1.88243130965487   15.12806352413204    5.38914685894256
H         1.01990514397141   15.60536013302248    4.92770918765911
H         1.91396685522735   15.40870240733028    6.44023043734062
H         1.74511484010675   14.04732647784840    5.32533369334785
C         4.79866908611216   15.48378372471759    2.32768191013367
H         4.75700859383893   16.56891718051816    2.20723458936917
H         5.55748892876776   15.25010679885516    3.07912064582348
C         5.14902640396409   14.79532227905464    1.01426669944391
H         5.23513799659465   13.72061109518076    1.18251312429123
H         6.10233830224433   15.15387870742676    0.63101555015896
H         4.38073840191053   14.96796394696002    0.26259687769397
H         2.26012187858041   12.72842219238659   -1.13467678833336
H         3.10864201460346   12.57129865802571    0.32697909667432

