65
CSD_code = MIDCOU | q = 0 | S = 0 | Stoichiometry = C30H26Br2N4O2Pd | MND = 4
Pd        3.57189984291415    5.59885203511669   -1.33024299883910
Br        2.58302322789454    6.76192496919474   -3.23889157467629
Br        4.38356003762196    4.36250362396513    0.62373522383980
N         4.80938331672647    4.02352437924326   -3.47518758213948
N         8.25586701969273    8.27597585882982   -4.69367249187558
N         3.23270077200520    2.88854524580996   -2.53640608288375
C         5.67497515649002    5.09291356806704   -3.78062622754150
O         6.62816326237384    9.30163978902181   -5.89441895038950
C         7.07054382414822    6.91126103870565   -3.05977665032702
H         7.52110626993218    7.49273627317632   -2.26975747664658
O         9.87338441229720    7.19234227183515   -3.53174219193086
N         3.27415779417411    7.21520396279576   -0.19532173771793
C         6.23995289284683    5.84860275639850   -2.75164676478164
H         6.09233389726866    5.57012311954542   -1.70419356427840
C        10.47365336658215    9.25519532913464   -4.51454309008548
C         2.15836399932586    8.36400265625015    1.56015156029553
H         1.39920837252922    8.35190055176460    2.32581771234424
C         6.79312911812572    6.45873338452045   -5.40739258299765
H         7.00714145373643    6.70258521801829   -6.43575578250395
C         4.70998007450122    2.83581969168028   -4.15833745475006
H         5.35121578330475    2.58769452281067   -4.97800518711766
C         2.18404041673426    2.49111762838106   -1.62094257165139
H         2.62440652681485    2.34105485684911   -0.62691203833605
H         1.77626782851591    1.53969742679536   -1.97133016755323
C         7.35380814847668    7.20933587129993   -4.38524799059698
C         8.72659133924126   10.38358881768165   -5.81069970150830
C         5.94691252058700    5.40918006571426   -5.10588890579683
H         5.48412091472139    4.84546894529596   -5.90085067166575
C        12.66209962284134   10.24904525382481   -4.34280811734669
H        13.67043386376869   10.20428227113060   -3.95999377820700
C         7.77121341919026    9.30760057024157   -5.49734263533824
C         8.32210517429596   11.44406464193307   -6.59475438112776
H         7.30664094638756   11.45985720495895   -6.96105232736393
C         1.07217742587223    3.54071440303326   -1.53018661519681
H         1.49369372329108    4.48860947158426   -1.13014816304468
H         0.67540801281033    3.74212588586208   -2.52927584640696
C        10.04517557597512   10.33337135903164   -5.31526088744824
C        10.95176871876115   11.37772116046289   -5.62797330837693
C         9.21466673367423   12.47433076339879   -6.90480940449459
H         8.88065055787959   13.29564114993650   -7.52055037880930
C        11.76760939168242    9.21918419198596   -4.03756711712762
H        12.07224723219330    8.38244808485475   -3.42714142078188
C        -0.05170807526551    3.08952987238326   -0.60270676282525
H         0.36452395621851    2.86167019312969    0.38120009236935
H        -0.50578590439304    2.17569124091759   -0.99330266517845
C         2.95555872957160    9.47929264436874    1.35623931872203
H         2.83083224978483   10.36401455299853    1.96183765520200
C        10.50165310125277   12.44454655782686   -6.43361013365995
H        11.19222790052004   13.24005615342866   -6.67351490891902
C         3.89519090446305    4.05286638941670   -2.48112452796342
C         2.35367785977929    7.24981034511283    0.76351850585707
H         1.76232557000475    6.34809478424516    0.90531184173094
C         4.03860095865603    8.28479302068696   -0.40086461050368
H         4.76637841014714    8.21584488841552   -1.20891387532247
C         3.72691637734648    2.12423251087004   -3.56154536718424
H         3.34608191503494    1.14835855238254   -3.78225636882965
C         3.91478703563403    9.43596308672573    0.35600678932545
H         4.55569714120045   10.28085621298166    0.16017209602439
C         9.54860677676183    8.15793821507385   -4.18885219277329
C        12.26611592413481   11.30584607340391   -5.12111005973218
H        12.95751487231328   12.10139512894119   -5.35846736723660
C        -1.11654499440704    4.17106633617487   -0.46960918161832
H        -1.90822050068733    3.84991336548649    0.20256159858091
H        -0.68172988758914    5.08752110617417   -0.07555127253799
H        -1.55588230894982    4.39577849898133   -1.43876828030911

