39
CSD_code = MIJKIZ | q = 0 | S = 0 | Stoichiometry = C20H15ClNORh | MND = 5
Rh        2.79150423304047    5.33584480815515    9.08540855067314
Cl        3.73874223634827    3.93384496840646    7.61500203253084
N         1.00169152499378    5.04175215077008    8.18703865657982
C         0.59049331212477    7.22896501110993    9.02334324935055
C         0.19487890865613    6.14005867207207    8.20527731501952
C         0.62373397079124    3.99618243036843    7.48165799560633
C        -0.55772086297542    3.97447259194139    6.72610375402117
C        -1.35893026906777    5.08324896122422    6.68576946038146
C        -0.99321089526196    6.21898026459883    7.43830447853068
C        -1.73233356502634    7.41870669433331    7.46081142621638
C        -1.31027279228634    8.47681354346433    8.22110490656063
C        -0.15832504679184    8.38438641753966    9.01201682575135
C         1.76290613609743    7.03042462368575    9.88677086943278
C         1.85000603758775    6.01399534528307   10.88340274236056
C         2.79444617611467    6.48953405399124   11.97909031199223
C         3.33317888989355    7.78366776794670   11.44971820319759
C         2.69801898739739    8.10530110231814   10.24097931044319
C         3.01901419470854    9.27253310411844    9.56464580871777
C         3.97959962326507   10.10889919716054   10.10998037580716
C         4.61181988164823    9.78610208168131   11.30081977679060
C         4.29535745469878    8.61633025766202   11.97903654158630
C         0.73567474138457    5.08652525543273   11.30363820475315
C         4.49746784587266    5.65509835455862    9.68136459105555
O         5.59227538669974    5.85006257993142    9.94337558068975
H         1.28466870937529    3.13926077166760    7.48530721572549
H        -0.80703349524507    3.08334611947671    6.17220545700015
H        -2.26165867936771    5.10670424189260    6.09286522814979
H        -2.63032585076698    7.48651352759505    6.86519537698109
H        -1.87738446003693    9.39564262572847    8.22823858231224
H         0.13717194161540    9.21864552201252    9.63006660519857
H         3.58267238667889    5.77125723366997   12.21699637511283
H         2.23149984595038    6.66165841496358   12.90226355021261
H         2.54214069136451    9.51640464079775    8.62650310333772
H         4.24499340755098   11.02123198707171    9.59640163200091
H         5.36092471923979   10.45050622697231   11.70448967030097
H         4.79350325889814    8.36719398263715   12.90451022661821
H         0.30953039514948    5.42884800129311   12.24812945580597
H         1.11528052320062    4.07446601828138   11.46136913959040
H        -0.06639950349633    5.04759044818359   10.56909741361442

