65
CSD_code = MIKHEU | q = 0 | S = 0 | Stoichiometry = C27H34ClIrN2 | MND = 6
C        -1.43750613529137    1.17615255120360    6.38677304262898
C        -0.36705263850388    0.88203469787421    7.23604135669566
C        -0.47226676372700    1.19788290128850    8.58364298407115
H         0.35771895209080    0.98587993519131    9.24198504444938
C        -1.62492413485950    1.77134494612588    9.08497405762053
H        -1.69132148750647    2.02373093216661   10.13293743321393
C        -2.70035004789271    1.99785071570372    8.24766699326605
H        -3.61272171760195    2.41570368381175    8.64710260427143
C        -2.63319613501425    1.69371023790366    6.89402191300600
C        -3.82722162476047    1.89059231640466    6.01939236595399
H        -4.60236827456408    2.43721664135641    6.54918800790348
H        -4.23803553040345    0.92854905650262    5.71304687824184
H        -3.56169336373636    2.44447566503657    5.12034460146089
C         0.86412151444672    0.18102039166125    6.74019789183044
H         1.04856493463227    0.39320847193947    5.69111830516763
H         0.74394114922203   -0.89765634397063    6.85568553977627
H         1.73592502336649    0.47962783398775    7.31763184704025
C         0.03373686922391    1.40489056284870    1.76821646313310
C        -0.65790750367780    1.98910742306920    0.70213934218380
C         0.07143558832223    2.44154687680689   -0.38999556259454
H        -0.44963871205674    2.91484142725984   -1.20930557452460
C         1.44391616105158    2.29218530670495   -0.44435741311563
H         1.99604441569336    2.66197358974636   -1.29574981584119
C         2.10515501530261    1.64148399352194    0.57948439016333
H         3.17234945512580    1.48362108178907    0.52043523542387
C         1.41102374441518    1.17785064360500    1.68824357867839
C        -2.14710393308652    2.10018724226479    0.70850617451132
H        -2.60219352408053    1.11314560027495    0.62656209906632
H        -2.48847947149241    2.70194010558191   -0.12928950738044
H        -2.49763131135784    2.55759070161906    1.63247243105630
C         2.14185069698892    0.38890873188137    2.73518236722227
H         3.17584024908890    0.71659373673079    2.81390234587809
H         2.14993002945740   -0.66675063205844    2.45737930262258
H         1.66820907414819    0.48112624261465    3.70813241731084
C        -1.70840844718598   -0.41386166900434    4.47872264872374
H        -2.78981510539439   -0.54645988205772    4.56835254008602
H        -1.21563218620203   -1.21171731773048    5.04436236584614
C        -1.25087492632386   -0.34593625552209    3.02033762230533
H        -0.50263651015339   -1.10599158047794    2.77153874155009
H        -2.08471176748367   -0.44163846093495    2.31980573964012
C        -0.72681390787248    1.67513091107019    4.08406498771238
C        -0.39638013251895    5.77378845716188    4.75849885773102
H        -1.42698642783539    6.01007331924787    5.00951274342804
C         0.60557970222593    6.09510475556450    5.84189229441640
H         0.11678768162841    6.69301698192438    6.61382382841095
H         1.40627953589389    6.70538778051523    5.42106571529122
C         1.18077337752906    4.82242555373817    6.48763883126145
H         2.18505929439543    5.01912196867481    6.88014496841368
H         0.55262360402037    4.53792424916690    7.33526811207564
C         1.22857367015907    3.64167143423939    5.54356185923629
H         1.32701788120519    2.70274172140198    6.08139472069851
C         1.73935460489883    3.68489554310508    4.23154073297323
H         2.16872984222417    2.76626196157764    3.84782323976463
C         2.35492327840400    4.92758281131464    3.61932850008357
H         2.82508381029095    5.52267487055792    4.40385680866196
H         3.14393185088531    4.62894962299547    2.92591488244368
C         1.31927408638655    5.76663626336608    2.85106386746153
H         1.62328504983720    6.81916596383125    2.82988936893031
H         1.28337452573092    5.41791872294045    1.81635132080010
C        -0.07240580422371    5.65663489098312    3.42366412300194
H        -0.85637044387805    5.83811871912932    2.69133743510021
Cl       -2.63105038729595    3.86097256089294    3.54003248246766
Ir       -0.38995702782809    3.66493059087797    4.18677555880046
N        -0.66606161985725    0.98685628253170    2.93410736750206
N        -1.31389766466061    0.89105196047860    4.99891859480512

