31
CSD_code = MINFEX | q = 0 | S = 0 | Stoichiometry = C11H13Cl2N3PdS | MND = 4
Pd        6.68098362186424    5.55260237468968    7.27873297352393
Cl        4.45008738895641    5.45302372048395    7.20035718645855
Cl        6.64752854366318    7.68525839205180    6.58149408995202
S         9.09521096352471    5.69895593170206    7.27758229372186
N         7.67611960157084    3.31139449269620    8.85282296840163
N         6.35767191521023    2.47331866422002    7.41759414174215
C         6.82414404869955    3.65589183738882    7.87968558242422
N         7.77222544459098    1.97812270276110    9.01757167959317
C         8.47961285701674    4.24407016336571    9.59315504027512
H         8.84609211172755    3.73815414598857   10.48968815599981
H         7.84644108994296    5.10138252132232    9.87755275684842
C         9.65432448414470    4.72951735084875    8.74318187437833
H        10.24918315520509    3.88629786093195    8.39873056555360
H        10.27783492860448    5.40767365833398    9.32432498256509
C         6.95730667829400    1.48763593019520    8.13934198539889
H         6.77731032235955    0.44145950189991    8.00209124444459
C         9.25192105337608    4.52422091714501    5.93183257248152
C         5.41426170809338    2.30534968512051    6.34527220282267
H         4.90207095737156    3.26140430392937    6.19523472839131
H         4.68669351862975    1.53909450162626    6.60834069699687
H         5.93357682966900    2.01383594443338    5.42998250011544
C         8.25423782624364    4.49849084707765    4.95854007903122
H         7.39902408945365    5.18685945797203    5.01871539353549
C        10.37372972105140    3.71910328360239    5.80003089314483
H        11.18324903772119    3.77970761341775    6.51171430726657
C         8.36489020654837    3.62466372454988    3.89083314203709
H         7.59150848114787    3.60597537921379    3.13821264542146
C         9.46030495233284    2.78156513704000    3.78591488399850
H         9.53832093939810    2.09527952913641    2.95684588955909
C        10.46601783888029    2.83853383855681    4.73532273002112
H        11.33621568470534    2.20655658829538    4.64369981389630

