65
CSD_code = MIPBAQ | q = 0 | S = 0 | Stoichiometry = C29H29BrCuN4P | MND = 4
Br       10.04078889223964   -2.33390853992268   -0.63167996911280
Cu       11.92650138075510   -1.45478422717922    0.24648863712281
P        13.71969368506538   -2.78026874178703    0.67860291984299
N        12.85807557769734    0.28151473910851   -0.03232674494129
N        12.28729110383549    1.08946736624670    3.44271264929642
N        11.50131989945926    0.26875517716951    4.15296336749945
H        11.28323229005207    0.48574563837100    5.11261073235931
N        11.63914419816419   -0.64683465134812    2.21025137735085
C        13.52570763110857    0.63580656769484   -1.12661681777984
H        13.31342508011295    0.06054426144205   -2.01735128910625
C        14.43499458248750    1.67434195570229   -1.14677703307253
H        14.95671714333466    1.91758683802152   -2.05865867911038
C        14.65068669996588    2.40319580913515    0.02021893859675
H        15.34698945205258    3.22814384620489    0.03330134364465
C        13.95416321361209    2.04958059934155    1.16040338794174
H        14.07512769318369    2.56962970532349    2.09694648176805
C        13.07101375487902    0.97531767428401    1.09948304125652
C        12.34816135587703    0.50863981558890    2.25972578651060
C        11.10637414654605   -0.78128458857700    3.40454487489440
C        10.18685285731799   -1.87585972671710    3.83429232484186
C         9.96302335265534   -1.82839486440333    5.34782263747767
H         9.44565770536994   -0.91676583682440    5.64222145286680
H        10.90794582922807   -1.89496300918215    5.88570650698739
H         9.34538369953088   -2.67190291198499    5.64554743918573
C        10.80722693643003   -3.21839229536571    3.43519416306452
H        10.10953332141645   -4.02596310216121    3.63898880074116
H        11.72582341677941   -3.39410195160140    3.99106362648823
H        11.03758597300943   -3.22243215663978    2.37193365647831
C         8.85501063058035   -1.68560106391839    3.09367790351537
H         8.42510248476703   -0.70936887441584    3.31006068890483
H         8.15091550039614   -2.45217722465956    3.40569873661335
H         8.99886212089662   -1.77338488461302    2.02032859013689
C        14.48353742261753   -2.45529404159592    2.28948388753678
C        15.03642030796338   -1.19459874848522    2.51867420259804
H        15.15562002209830   -0.50625562034855    1.69197249858267
C        15.43620604076095   -0.82559825890144    3.78808390385808
H        15.86252033884296    0.15329268690998    3.95352317107015
C        15.28050090791167   -1.70565631659551    4.84756065088019
H        15.58735537196984   -1.41499132567954    5.84152373180378
C        14.73083940725711   -2.95910625004349    4.62878140829782
H        14.61147648096859   -3.64725120531567    5.45373609928972
C        14.32580505255875   -3.33193376244622    3.36039199018357
H        13.89063779744654   -4.30757338203269    3.19094020776446
C        13.65881342920334   -4.60204167625777    0.59406254274555
C        12.44464788792239   -5.22022100996732    0.31924776693969
H        11.55398171779676   -4.62638915107522    0.16633184833349
C        12.38187395429068   -6.60054290438968    0.22635541390380
H        11.43798739020820   -7.07775503360071    0.01110770537243
C        13.52537658088671   -7.36003820625234    0.40284370178685
H        13.47702494652508   -8.43658475674908    0.32873632912057
C        14.73903674695597   -6.74264277046318    0.66919349859201
H        15.63172621544182   -7.33732354877241    0.80033728416024
C        14.81073167588600   -5.36671881653767    0.76223341901470
H        15.75500967684630   -4.87923143081978    0.96507207125056
C        15.04362415136510   -2.46482873574168   -0.53252075890993
C        14.63077036032044   -2.46586203347678   -1.86388282153739
H        13.58922462651895   -2.66292714719569   -2.09015539181887
C        15.53745558142511   -2.22250092053936   -2.87682604942188
H        15.21200651993555   -2.22690733762257   -3.90677660075143
C        16.86422332015156   -1.96781622626495   -2.56640145963796
H        17.57527959401452   -1.76863039253211   -3.35452885588236
C        17.28012217166257   -1.97259228767954   -1.24537740990869
H        18.31634314824870   -1.78248692763516   -1.00461871886519
C        16.37722781016486   -2.22348586046503   -0.22694309684389
H        16.71276173502728   -2.23108794376349    0.80105829820723

