68
CSD_code = MIYPER | q = 0 | S = 0 | Stoichiometry = C27H36I2N2Zn | MND = 3
I         1.56180930090217    2.39187109463848    5.49056257384687
I         3.57210215421967    6.32473950130699    4.24973072576494
Zn        2.14657910338047    4.27111964861172    3.91274622701744
N         1.14630225073341    2.97375360713861    1.26049073648151
N         0.83507906370179    5.09049335691733    1.20519975997511
C         1.30610775048653    4.09786725820519    1.97945628565845
C         0.58141984834651    3.25610478435621    0.04708354843086
H         0.37768741767110    2.49565547983797   -0.67749662968181
C         0.38349231493426    4.59561469593062    0.01251722335402
H        -0.03883368837388    5.22501194020378   -0.74260499507847
C         1.49209890528808    1.66959555320249    1.71327676128104
C         0.47127171569549    0.80812814524512    2.12529979153510
C         0.83246223205116   -0.44795411273862    2.59159414532772
H         0.06881285636928   -1.13159777779687    2.92444227434468
C         2.15894532728354   -0.82781543667908    2.65244017646458
H         2.42142068781872   -1.80172461677788    3.03564573650924
C         3.15063166468157    0.03278089952246    2.22525177450657
H         4.18195699012414   -0.27952000727835    2.27150349453236
C         2.83804917682962    1.29694233002706    1.74242536562161
C        -0.98603409293384    1.20285808561975    2.05511491558151
H        -1.06429991186687    2.27055492413923    1.82212068722410
C        -1.70449185466993    0.97015155087150    3.38507073994309
H        -2.70795940752900    1.38787957545538    3.33871621426497
H        -1.16682411791378    1.44387113546823    4.20138301506108
H        -1.78921561023337   -0.08943510260379    3.60656151173237
C        -1.67608157709137    0.42187451226841    0.93204153068486
H        -2.71820832439640    0.72297137176737    0.85280462086980
H        -1.64000241667855   -0.64535781091511    1.13519424759257
H        -1.19177151479072    0.60151253051458   -0.02610494524170
C         3.93671700823009    2.20661380503109    1.24023670891474
H         3.50449319638985    3.15890012732686    0.91207988387974
C         4.94920939097682    2.51073091538407    2.34562918508049
H         4.44970006415319    2.93557648427867    3.21953825573669
H         5.68718612752011    3.22834698605369    1.99414720011914
H         5.46657792844421    1.60980557727593    2.66397213891887
C         4.63049286900830    1.57566014216379    0.03010958985514
H         5.38467233273819    2.25439570611633   -0.36178366521909
H         3.90963114440596    1.36646999526133   -0.75831318334148
H         5.11720104399477    0.64361498127047    0.30440234152802
C         0.80730632235837    6.46286631584418    1.58019789463040
C        -0.12905964065153    6.88451142860301    2.52795815260821
C        -0.11357629018675    8.22114699300819    2.90478211462140
H        -0.81679510940629    8.57427591102102    3.64242073248065
C         0.79339393090128    9.10326239881093    2.35173205340651
H         0.79822894467248   10.13560467089616    2.66564175063486
C         1.69368267857333    8.67030701895086    1.39814810195629
H         2.39261865648024    9.37074005099779    0.97136457379321
C         1.72240530324629    7.34266181725257    0.99513882229594
C        -1.16218248883651    5.94882308656605    3.11476389230352
H        -1.00754081366722    4.93671413044806    2.72392722082379
C        -1.04492924787715    5.88146066344111    4.63837657119472
H        -1.72402731836085    5.13050600721683    5.03595609401703
H        -1.28267769308478    6.83858576489345    5.09454259134474
H        -0.02807976815725    5.61375602048394    4.93507701510574
C        -2.56782171527467    6.39100775025146    2.69926810102034
H        -3.30674037101173    5.69302642118953    3.08639116214105
H        -2.65449742794299    6.42080846394614    1.61453124284596
H        -2.79374718669458    7.38053443380384    3.08742569781301
C         2.70587004537867    6.89009954982201   -0.05945838273350
H         2.69467172253244    5.79640571689582   -0.12304533031113
C         4.13660040228374    7.31547739908459    0.27394705661881
H         4.82867139442569    6.86155689099454   -0.43207800795036
H         4.40750798268443    7.00239433886331    1.27812190373727
H         4.25105077109420    8.39355915814959    0.21367606353258
C         2.28856828815906    7.44941968931583   -1.42356316157791
H         2.96859711159754    7.09758360054022   -2.19602722648063
H         2.31381834696890    8.53607418277337   -1.41087785260638
H         1.27909582041230    7.13706828952028   -1.68482481622950

