42
CSD_code = MOBSIH | q = 0 | S = 0 | Stoichiometry = C21H15Cl2N3Pd | MND = 4
Pd        9.01529933204242    2.10744524092372   10.19299008918393
Cl        8.75757330713929    3.89273041240303    8.90749636202756
Cl       10.89562510886523    1.66898960082756    9.10827310764221
N         7.24457580620431    2.29527229220228   11.29219847027486
N         9.00997075711672    0.33978351149710   11.16512241818482
N         5.44962461955637    1.02999157462518   11.65897459369437
C         7.57764527662191   -1.23278861825161   12.26509614977674
H         6.61953000818048   -1.47758377060232   12.69205317995150
C         3.73650369129961    2.94231017245156   11.72862471483294
C         5.02469598892953    2.33996013093325   11.60884303212313
C         7.78307176525608   -0.00829853555565   11.62750007380340
C         6.80660728351249    1.05217761212962   11.49441568102848
C         3.66533109481514    4.34814580089933   11.51309461410961
C         1.25557125680959    4.21611685109313   11.80134869604992
H         0.29353098147200    4.70593335935614   11.80442624743215
C         7.31458040574028    5.28803745631542   11.32359893599154
H         8.26723743475159    4.77194601176386   11.37562811064059
C         9.87360472525775   -1.76156902713913   11.86816648559877
H        10.71656576614740   -2.42929480654794   11.93548914316896
C         8.63313484729274   -2.11863694634002   12.38213358511013
H         8.49143447514386   -3.06903532791085   12.87327123375763
C         2.56988261476037    2.23715274422483   12.06043462056608
H         2.62342692033451    1.19310465510054   12.31802503953608
C         6.13703095134942    4.53428260343727   11.34116144614270
C         4.86571879982453    5.15018512062940   11.34341787370191
C         2.39410376153856    4.93868274388398   11.53270921890503
H         2.29268635368917    5.99307044775969   11.33629155208093
C         1.34622960795244    2.86082861636456   12.09728451060687
H         0.46021078811831    2.29900954990979   12.35280661613298
C         6.16757156304873    3.11122526977210   11.39133346741801
C        10.02007951683283   -0.51805516050902   11.28045949734827
H        10.96768725375554   -0.18418912189014   10.87288447333018
C         4.63109897735047   -0.15073195975999   11.57100486575638
H         4.29189197288508   -0.47752847493864   12.55746972877263
H         5.20277600518382   -0.95063296203345   11.10192144667713
H         3.76581676156249    0.05784503571417   10.94155833406504
C         7.24948543889050    6.65684401070548   11.23382711957556
H         8.15325526388572    7.24499695711048   11.20753792837732
C         6.00575773234162    7.28103541437942   11.17168026944286
H         5.95130232627768    8.35641815695932   11.08596076348043
C         4.84236200127502    6.54907319279604   11.23921518176956
H         3.90491145698679    7.08095016532109   11.21857112193894

