70
CSD_code = MOLPIN | q = 0 | S = 0 | Stoichiometry = C27H38Cl2O2Ti | MND = 12
C         6.32723596436221   13.18688098841636   11.37783800359811
C         5.26384288690137   13.59455690278549   10.53001927915522
H         4.44281321204495   12.97245751072375   10.20154672956620
C         5.53962731330586   14.89213089635066   10.06035617263530
H         4.95314348715840   15.43569261686853    9.33168906094215
C         6.74969391186757   15.32307026996629   10.64030684733956
H         7.27983300174263   16.23257375387961   10.38659331542032
C         7.24896338337901   14.25869532155225   11.43052373263282
H         8.23552745814971   14.22117251349188   11.87260498261965
C         6.58087663573574   11.80165199164724   11.91737488064843
C         5.38223848639055   10.85068830672464   11.79400185742324
H         4.47837140264904   11.38891684700534   12.07821812057765
H         5.26842868664766   10.47645649047061   10.77964679870170
C         5.65069541264557    9.73226170349759   12.80879979995648
H         4.72083738182499    9.39972261563548   13.26624595667817
H         6.10135744895863    8.86579620501250   12.32359856438618
C         6.61026892459033   10.32766414701321   13.85634592133716
H         7.55621990685832    9.78449598331428   13.86512577909590
H         6.19273491552750   10.27209267538523   14.86022510130736
C         6.83311767477314   11.78385844808002   13.43581396798812
H         7.82995038489788   12.13734707357195   13.70148436963787
H         6.08448278029683   12.42516916670665   13.91164555340150
C         7.81101969720800   11.22695943073724   11.18073573843726
H         8.72393379837898   11.74193225102086   11.48176682443547
H         7.91754349726572   10.17055921889878   11.43235826690242
C         7.70685418447271   11.31424330901417    9.67270062778766
C         9.04623108536682   11.64587193756892    7.72908089356614
H         8.07655713276393   11.39846718946899    7.28334044653898
C         9.49532646132953   13.04252929872087    7.28111310070354
H        10.45447518393920   13.24194545488997    7.77427462182107
C         9.72694501055773   13.01024917698658    5.76898293197659
H         8.79198471553254   12.76932604672817    5.26142416258571
H        10.05753551566090   13.99153768210043    5.42764939179496
C        10.77304317250120   11.96484118475861    5.39515391357076
H        11.72500065901123   12.20949076124744    5.87221071684970
H        10.92962268041239   11.97349689110661    4.31452399198345
C        10.32834000920349   10.57278106877896    5.84034497435500
H         9.38692403842641   10.32996489192531    5.33482988507049
C        10.07849902649304   10.58556048614881    7.34718586719413
H         9.72283316208137    9.60752062819663    7.67904405048945
H        11.01048031803933   10.80067145021930    7.87486152067078
C         8.51253115759951   14.13867985447283    7.74120659192400
H         8.33909112247039   13.98022520638553    8.81226267279284
C         9.12722606534325   15.52834542475521    7.57592382044591
H         9.27114260582423   15.76959972764497    6.52580140196873
H        10.08935343082356   15.59058478093282    8.08008617558893
H         8.46666652673644   16.27937358968494    8.00280123692544
C         7.15716156659538   14.08210124690124    7.04069606118010
H         6.67362529588430   13.12203815623228    7.19773237336847
H         7.25768205189297   14.26228068464620    5.97358420171884
H         6.50701754405278   14.84952001120774    7.45304731679645
C        11.36614529723550    9.51597652208304    5.47408074952764
H        11.03540660068689    8.52885521132570    5.78833705459723
H        12.31584560781984    9.73068743529178    5.95946696635243
H        11.52736686839852    9.49765349523655    4.39878743310749
C         5.62219842797746   15.22953946923516   14.78151029766682
H         5.29718830519853   14.50532389275887   15.51761083505792
C         4.89179824253798   16.35958655223567   14.36229656844328
H         3.90245161445505   16.63816174835047   14.70260614314468
C         5.71948300960602   17.12267579519552   13.50820690259822
H         5.47435858541657   18.09117935631958   13.09291237723503
C         6.95302316933438   16.46032901616221   13.39365147843508
H         7.83861823066186   16.85289459044442   12.91182712713822
C         6.88937467120098   15.27842858271982   14.16884714114248
H         7.72046179121554   14.62499777244922   14.39622718222303
Cl        3.78015649410761   13.60722696926283   13.17631554709268
Cl        3.59888880408311   16.30370773846430   11.61420690289043
O         6.71598041652780   11.11130655068965    9.02099365387073
O         8.89921596575043   11.61614988597298    9.15746051676680
Ti        5.28073052122426   15.05586994628512   12.42192654821637

