45
CSD_code = MOPHII | q = 0 | S = 0 | Stoichiometry = C17H21CuIN5 | MND = 4
Cu        3.60890719718605    3.61528864507319    6.59195991044631
N         2.01074200089953    3.78533060686671    7.90029744547637
C         2.21500145804131    3.15193904976016    9.06000458384649
C         1.21171991473357    2.45306557835928    9.70799164599234
H         1.41104238146794    1.95935985929678   10.64673781220827
C        -0.05554060369195    2.41258770939172    9.14076640337749
H        -0.86009606118388    1.88181928256889    9.62547490346125
C        -0.26708465486592    3.08154374663392    7.94217809607058
H        -1.24179132217429    3.08536323740857    7.47843875001178
C         0.78507343449706    3.77045390657241    7.36559676629973
C         3.63201360355441    3.16871015422594    9.56802813260762
H         4.11005851026025    4.11178354390919    9.27762355442604
H         3.67199379869335    3.04846816868533   10.65035380991926
N         4.33343585808076    2.07228250072814    8.94351195159063
N         4.22749966109345    1.89636285508550    7.62252308660269
C         4.93378742120041    0.81674224486918    7.31643947716936
C         5.49812699136615    0.28466653724147    8.48281833692533
H         6.12041696690874   -0.58308389884838    8.56012073324584
C         5.09393690998281    1.11461018566279    9.50991215691355
C         5.05644425822328    0.30969103993992    5.92646229192515
H         4.13662897762938    0.50069655249110    5.37921214501982
H         5.26410971391835   -0.75763184747389    5.93357120462076
H         5.87400852388293    0.81677841668593    5.41417762400521
C         5.39343968572768    1.06198916383758   10.96302103906112
H         5.89698107026394    1.97301688433734   11.28555724855940
H         6.04432346412158    0.21640137244131   11.16614613819104
H         4.48163576774604    0.94481492464074   11.54980555030111
C         0.62722236062371    4.55689482032383    6.08995343792291
H        -0.42165208266582    4.78662638861482    5.90314399750220
H         1.19890494733094    5.48824257026260    6.19013022166074
N         1.15298739827595    3.83045255788930    4.95926369669471
N         2.44417690851833    3.48702546814391    4.93357168716337
C         2.70016948436026    2.98363650178959    3.73603671648505
C         1.52197283755113    2.99011497818674    2.97428435082444
H         1.40379974425856    2.64607958374582    1.96739965897480
C         0.55146742973708    3.54384939611151    3.78338829697065
C         4.06312994662775    2.56498082351853    3.32575456897328
H         4.76549913289087    2.78254521477559    4.12589031416276
H         4.36307109079653    3.11481290465617    2.43503286147841
H         4.09414993105682    1.50167540553369    3.09204799234321
C        -0.88218856871984    3.81707452483904    3.50822122315370
H        -1.52312079865953    3.31668222860086    4.23427394229529
H        -1.13324319092800    3.45131414726785    2.51665301254035
H        -1.08953176990467    4.88689307582719    3.54291905177077
I         5.45647027128650    5.27184898952114    6.64710417080789

