39
CSD_code = MOQFAB | q = 0 | S = 0 | Stoichiometry = C12H23AuClOP | MND = 2
Au        2.48428602031812    7.93168171195519    1.76137852506292
Cl        0.35177362945879    7.34795300813993    1.28793381076802
P         4.61442800424839    8.46535581849921    2.22052074440423
O         5.13818781808290    8.09954005478190    3.70039665349289
H         4.62958420268845    7.40800910061546    4.13085194640257
C         5.01462357534809   10.26037899182906    2.17644383623501
H         4.78773936646896   10.59984129063023    1.15796783580118
C         4.06075894810070   10.95387361948870    3.15072479087806
H         3.02581791900355   10.72413866562645    2.87799800113703
H         4.23699617852149   10.56882733564175    4.15849183454573
C         4.29007401767969   12.46149533423856    3.14235468264020
H         3.61696209192667   12.93933267140971    3.85619642805393
H         4.06413312104384   12.85872085965340    2.15022025193056
C         5.74010361916780   12.77479811791410    3.49926950471026
H         5.90372179481698   13.85367362847112    3.47714264651758
H         5.94791456370011   12.42454545260715    4.51282012979461
C         6.68847448687360   12.08783926298378    2.52172515636595
H         7.72396982865337   12.30446962197145    2.79176932914074
H         6.51623795093374   12.47917065034244    1.51600857079563
C         6.46828208667888   10.57650993541859    2.52019952564682
H         6.69796141440378   10.17144626677736    3.50758918898405
H         7.14103628379776   10.11342126186694    1.79573568196341
C         5.84365818453168    7.61600288271079    1.13833402731108
H         6.85422807029385    7.84370213388857    1.49932883185108
C         5.66280087410033    8.08182652576549   -0.30280471320980
H         4.61474770709773    7.94283614863201   -0.58700589134205
H         5.89438835609442    9.14641094107366   -0.38739978822352
C         6.55796285132693    7.28569518801196   -1.24854047548078
H         7.60565283832765    7.47421826181504   -1.00030898847185
H         6.39172389077385    7.61861972673894   -2.27460972858227
C         6.27010651141481    5.79283056447540   -1.12979235630813
H         5.23617146137791    5.59847344328863   -1.42207383304036
H         6.92126155444781    5.23358234024944   -1.80350466862596
C         6.48626961692317    5.32836952652208    0.30660895612555
H         7.53190526963271    5.48087252606035    0.58537727097888
H         6.26770969050399    4.26265854224990    0.39295065619618
C         5.58765763404150    6.11249018410589    1.25792249055571
H         5.76480919799728    5.78512979162814    2.28668094457289
H         4.53847936919336    5.91075861192114    1.01469819042678

