41
CSD_code = MOWGIO | q = 0 | S = 0 | Stoichiometry = C18H18I2N2Zr | MND = 9
Zr        2.55473785114742   13.56146396648499   -0.13645934215957
I         0.88973266537331   11.44917916169642    0.73175365800963
N         3.36806480725111   13.55025405984162   -2.03566948993527
N         3.93332515330053   13.62852575218401    1.29008174430333
C         2.60622518259575   12.44426666132918   -2.36646509110680
C         1.37887909114119   12.84403963941323   -2.89913335510326
C         3.07604077890116   11.08893478325456   -2.08340043652665
C         3.99954596724220   10.86913343741095   -1.05252837938253
C         4.40800011164500    9.58612637321864   -0.73947517164259
C         3.90188252994849    8.50297636695380   -1.44104424647430
C         2.99233811553391    8.71053754480945   -2.46444296275079
C         2.58187317186946    9.99010143271016   -2.78733419904250
C         5.37391924736320   13.48125174599292    1.22776002043995
C         3.46721905555618   13.49814173928787    2.66052707557022
H         0.58805854621039   12.20381430771135   -3.25107075689657
H         4.39955866185842   11.72084186703328   -0.49570412307366
H         5.11521685852636    9.42765152914269    0.06174589552933
H         4.21359744772283    7.50188608823257   -1.18691968924790
H         2.59647079491054    7.86957484035831   -3.01307448282751
H         1.87572322913138   10.14518291067309   -3.58898808907044
H         5.69533929080296   12.50343651026359    1.62949088491421
H         5.73715106907095   13.57272153826621    0.19590141793832
H         2.38993322893841   13.70021417424458    2.73128645085140
H         3.65907518351017   12.48466377492101    3.05535366139795
I         0.76775706865112   15.61432357413405    0.63092415077969
H         5.86988062872903   14.25691268787534    1.83439632668384
H         3.98681426449410   14.21290606706412    3.31665442868095
C         2.60944956755799   14.65200276936481   -2.38452303072943
C         1.38207829064462   14.24728958972908   -2.91251639366216
H         0.59271436092080   14.88454439306382   -3.27282045827470
C         3.07137385807772   16.01230572501868   -2.10988552385167
C         3.96093477978934   16.25525927330092   -1.05446628685612
C         4.35385713269090   17.54655177707804   -0.75425846677123
C         3.86666803502226   18.61400116126541   -1.49228348507491
C         2.99021760796616   18.38316046622357   -2.53935466755775
C         2.59526588411817   17.09569467267191   -2.84962059852636
H         1.91518839036509   16.92157693666251   -3.66976097108644
H         2.60812061502118   19.21166235708344   -3.11613276818516
H         4.16649952199090   19.62112276369266   -1.24765662632010
H         5.03390710991556   17.72270668615198    0.06641369897868
H         4.34566484448960   15.41945889418267   -0.46170032194063

