39
CSD_code = MPYCPD | q = 1 | S = 0 | Stoichiometry = C15H19ClN3Pd(1+) | MND = 4
Cl        0.00000000006477    1.32479225846047   -2.01920350171199
C         2.89393010216456    1.12937161504237    0.06316205999208
C         4.24470728865900    1.34543931159951    0.33170833739736
C         4.64116774592987    2.51324139153213    0.95381991875700
C         3.67293922650562    3.43361209794879    1.33574894950695
C         2.35034942097770    3.17847832937511    1.02017941378808
C         1.23498393267524    4.13835780611534    1.38320807060313
C         2.40589137615584   -0.15146377561650   -0.52013723758440
C         0.00000000000655    2.96348671155623    3.11171197469828
H         4.96572004334240    0.59282542293685    0.05714863841928
H         0.88547908150789    2.35695929876622    3.30531944015391
H         5.68210387599265    2.69850608490309    1.16562945256281
H         3.94242909402952    4.33327609626862    1.86482750585872
H         1.54850464472970    4.79238755421397    2.20785270100240
H         1.04778723835967    4.76842045568598    0.50096001255926
H         3.08013032368613   -0.96740723072442   -0.27500079284119
H         1.39579394894661   -0.37338515348032   -0.14970048880852
H         2.34477348152207   -0.06783857628040   -1.60605833125234
H         0.00000000000885    3.81691984108523    3.80126171986764
N         1.98836828018108    2.06547759557115    0.35902341275430
N         0.00000000000541    3.40382836607084    1.72228459389737
Pd       -0.00000000000036    1.98135617525595    0.13096308753533
N        -1.98836828017944    2.06547759553935    0.35902341278967
C        -1.23498393267025    4.13835780610321    1.38320807060229
H        -0.88547908149898    2.35695929877260    3.30531944015487
C        -2.89393010216844    1.12937161502035    0.06316206001996
C        -2.35034942097373    3.17847832935642    1.02017941380395
H        -1.54850464472137    4.79238755421509    2.20785270099246
H        -1.04778723836305    4.76842045565930    0.50096001254583
C        -4.24470728866376    1.34543931159025    0.33170833741167
C        -2.40589137617711   -0.15146377563159   -0.52013723758198
C        -3.67293922650315    3.43361209794908    1.33574894949818
C        -4.64116774593131    2.51324139153381    0.95381991875237
H        -4.96572004334942    0.59282542293078    0.05714863843111
H        -3.08013032371707   -0.96740723074159   -0.27500079286934
H        -1.39579394896853   -0.37338515352479   -0.14970048881443
H        -2.34477348154220   -0.06783857626623   -1.60605833124793
H        -3.94242909402738    4.33327609628620    1.86482750582065
H        -5.68210387599572    2.69850608492153    1.16562945253504

