70
CSD_code = MURROH | q = 0 | S = 0 | Stoichiometry = C21H37BClN9Zn | MND = 4
Zn       -0.61185838283580   10.40791221720961    0.61200055355789
Cl       -1.85228089918978    9.16732473674713    1.85254459984326
N         1.38316743515539   10.38495931770902    0.79055183470992
N         1.92315150843710   11.22142491308282   -0.12920910362994
N         3.58082389341435   10.26701150806104    0.93333102213212
B         1.06169182023068   12.08155105873881   -1.06160087192092
H         1.74283254680909   12.76271571421754   -1.74275175281444
C         2.41261419695447    9.82576495573652    1.41595328804414
C         3.25435784524277   11.12538127832685   -0.01831219748564
C         2.30348357509862    8.82599540362665    2.52420445872042
C         1.60686567717496    7.56740547141751    1.99362808032754
H         0.59445452911766    7.79649571866498    1.66990617919805
H         1.55330395022977    6.81840284062566    2.77972128752950
H         2.15908151315122    7.15129256508634    1.15342254648507
C         1.48808550564676    9.43178463873282    3.67209466253482
H         1.94920140399416   10.35256540310820    4.02386763331467
H         1.44091740258852    8.72868460488167    4.49990104305031
H         0.47265324211224    9.64863978355173    3.34975116169367
C         3.70887359857973    8.47317958575292    3.01532036511839
H         4.21653361189373    9.36124414596932    3.38134256419088
H         4.29993570667807    8.05814286278075    2.20394890336718
H         3.64787536036978    7.74364128835994    3.81913506061846
C         4.24342708313713   11.86002851573437   -0.83940827245801
H         5.23890618869498   11.59143714631695   -0.49899793016258
H         4.10196628494024   12.93405940232334   -0.74042550033702
H         4.13651334959818   11.59447352824299   -1.88932660669195
N        -0.79047465132123   12.40292982310989    0.63499096751718
N        -0.63497978715743   10.22946241298921   -1.38303302112612
N         0.12927299811742   12.94296547441741   -0.20145642473086
N         0.20153168509790   11.14917131183717   -1.92303973767864
N        -0.93333432195471   14.60057712203389    0.75298820698612
N        -0.75303269793311   10.08672559400734   -3.58068414987324
C        -1.41591979444147   13.43233957080091    1.19420224886397
C        -1.19429931153022    9.60414746451978   -2.41246268546612
C         0.01832879810829   14.27416537588570   -0.10538086881398
C         0.10544200666103   11.03828406612706   -3.25424246831223
C        -2.52418143980074   13.32313895364029    2.19395274508676
C        -2.19425703708767    8.49606159534780   -2.30330201669392
C        -1.99360288400505   12.62649606942965    3.45252737105086
C        -3.45274531075926    9.02685118185792   -1.60665182126641
H        -1.66985692731529   11.61409827642384    3.22341123583024
H        -3.22357603036716    9.35055940291852   -0.59425541725155
H        -2.77970336155188   12.57289416581022    4.20151902160042
H        -4.20187141770643    8.24087211473747   -1.55304997920299
H        -1.15341404606338   13.17871738332452    3.86866517428428
H        -3.86874468567749    9.86711534387916   -2.15886975057400
C        -3.67203608388633   12.50771812021060    1.58812712963727
C        -1.58864685554323    7.34806461139606   -1.48791648235613
H        -4.02381161719928   12.96884347747497    0.66735226607480
H        -0.66791850935884    6.99615796004200   -1.94903609030723
H        -4.49985094704171   12.46050529979448    2.29121329014130
H        -2.29187429998271    6.52036229082834   -1.44075439978864
H        -3.34965507122592   11.49230135580824    1.37125435390331
H        -1.37174692670766    7.67036351307275   -0.47248280750648
C        -3.01535258727777   14.72850049492744    2.54680465770839
C        -2.54719741516400    8.00501102284143   -3.70868003383488
H        -3.38138171091704   15.23617434141516    1.65875110134461
H        -1.65920081988589    7.63886342931969   -4.21637438413779
H        -2.20400588498909   15.31957625717547    2.96186839121890
H        -2.96213646445484    8.81645335801815   -4.29971852146478
H        -3.81917459777228   14.66745278337396    3.27633049674082
H        -3.27685685420478    7.20129990767202   -3.64766137757986
C         0.83939694098439   15.26327809526660   -0.83999981558095
C         0.84012124876123   11.85933136178996   -4.24332968410959
H         0.49895452118136   16.25874091505327   -0.57138657983546
H         0.57147117950691   11.51896187302109   -5.23879854548211
H         0.74042085541128   15.12183602839566   -1.91403296519417
H         1.91413975035885   11.76025783084699   -4.10191146764995
H         1.88932027300995   15.15639134651584   -0.57444439423433
H         0.57466214586190   12.90926301763635   -4.13639577687259

