45
CSD_code = MUSRIC | q = 0 | S = 0 | Stoichiometry = C20H21ClN2Pd | MND = 5
Pd        3.71737069901258    1.34880994288792    2.25090127989270
Cl        5.17457809749930    0.69982748059465    0.58515508394530
N         4.35520845569472    3.93811666138494    0.87575594940795
N         5.42355556474941    3.85126559216381    2.73142434040294
C         4.49066263951782    3.20774004024298    1.99766650660329
C         5.18764525530554    5.02282207137237    0.90325186475407
H         5.23704263904401    5.73212179922331    0.10273627038796
C         5.86379905340013    4.96801397404432    2.07387947364131
H         6.60551811175443    5.62259408648373    2.48383368854004
C         3.56931002938682    3.52763431116475   -0.26679799802890
H         4.09977609229867    2.70220222295721   -0.75924247033577
H         3.49614926822383    4.37797506424296   -0.95199356589326
C         2.19133066679392    3.06536630605776    0.14020607395051
C         1.28511268693787    3.96654488252867    0.69083498121155
H         1.59075504442092    4.98715684140365    0.87630838431121
C        -0.00494530949552    3.56679590929961    0.99270081111323
H        -0.70136310338079    4.27285320159183    1.42108959891870
C        -0.40702752866241    2.26697041408665    0.73202635129367
H        -1.41923861148891    1.96008772360576    0.95198200424208
C         0.49074165159947    1.36153669044818    0.19079520704204
H         0.17047875017299    0.35052084621942   -0.01977416060466
C         1.79453705677968    1.74840017753687   -0.09055457827524
H         2.49322710456833    1.04785106253637   -0.53829390778753
C         5.97652292929015    3.33749537016322    3.96753247315524
H         5.20379137450479    3.35364196915377    4.74558926713189
H         6.80238292812729    3.98802985819137    4.26684245231396
C         6.45068850391866    1.92180659275394    3.72919693115724
C         5.75640223359095    0.84769252763154    4.28418382044859
H         4.97979427892179    1.04045207008748    5.01963668177528
C         6.12352845972993   -0.45415999234773    3.96921124767378
H         5.58913307517826   -1.28757621541862    4.40532296809586
C         7.17778782821192   -0.68554772492093    3.10081072849276
H         7.44712334798157   -1.69696687027658    2.83602154740024
C         7.87794153259609    0.37934787429989    2.56240492800176
H         8.69324593122201    0.19944889978379    1.87874044394512
C         7.51636941223097    1.67804997479445    2.87312759508334
H         8.04725716137464    2.50746077902905    2.42712035791064
C         2.11011291862619    1.60522937323792    3.57362108945353
H         2.12065577290103    2.18566542233741    4.49117691413794
H         1.28232569093861    1.85298030787498    2.91153189981095
C         2.55313498125065    0.26797429690038    3.63471513222971
H         3.02211297616759   -0.09532628507907    4.54922845706175
C         2.65422485110106   -0.49725621454508    2.47353338721485
H         1.90500411517624   -0.38443002167012    1.68996266829367
H         3.08763538281076   -1.49111929405389    2.54279782052713

