59
CSD_code = NELROM | q = 0 | S = 0 | Stoichiometry = C24H24Cl2N4O4Zn | MND = 4
C        19.98607722595883    3.52618848880794   16.02304672530661
C        18.50409816219501    3.87181839848599   16.13076582043649
C        17.68786867060566    3.19136925970318   16.99925470375230
H        18.07332279101885    2.40048763015321   17.62215851103466
C        16.32731095736697    3.51394897136160   17.09386034977129
H        15.71849583889003    2.95645612561456   17.78776370061258
C        15.78899828965763    4.50922996868006   16.32574286291802
H        14.74062924556118    4.75909910349219   16.39734921010176
C        16.59891955035453    5.22789257549775   15.42338230623287
C        17.97786978044757    4.90141037968635   15.32658332118175
C        18.78892218016255    5.62112728649293   14.42091380201649
C        20.21046059189555    5.29632442427710   14.30779192419783
C        16.08960633917841    6.26311162854462   14.60892107270992
H        15.03987542445092    6.50767654362570   14.68676389892828
C        16.90007058665179    6.94459955334045   13.73931567772805
H        16.49427197236239    7.73306805151146   13.12387919624059
C        18.25775680613235    6.62379438503773   13.64250716653061
H        18.90654557381466    7.15191780750576   12.96178698279770
C        20.10208008597493    2.07882212431984   15.57922877702343
C        20.22385020080569    0.31466068940474   14.28795676998545
H        20.31068753051314   -0.25021209740335   13.38323411935197
C        20.12931134617862   -0.07668445159131   15.58363358709166
H        20.11714642682997   -1.05907117819726   16.01060511244173
C        20.62417172123205    3.76119977581171   17.38066223042361
C        21.60812033837292    4.76772074152445   19.05803461357500
H        22.11606068118864    5.54459211376591   19.59059475358454
C        21.23509383782218    3.51853175576328   19.43372922378543
H        21.36201119438279    3.01021968265203   20.36809236557061
C        21.38438493350556    6.17335594265693   17.03064092505103
H        21.96599392504341    6.83605907251033   17.69082405304638
H        21.93895546399916    6.01176051120716   16.10195631722003
C        19.41008701049301    7.23612796337965   17.78084276377617
H        20.06269634306296    7.83172459187323   18.43545987846804
H        19.00656874481655    6.39572765351763   18.36356506608842
C        18.28172939122555    8.09645046285123   17.24087493360723
H        18.68927341149740    8.89866815734011   16.63234560684349
H        17.72015580698235    8.52159038208855   18.06762180831027
H        17.61507525538536    7.49999286593491   16.62618958673044
C        20.21022247766157    2.46462709882372   13.05761091507340
H        21.03683580780830    3.18080190202164   13.05892366227450
H        20.35409565971409    1.74483770651634   12.23626834716088
C        17.88320447264799    2.40827215763913   12.64255251674512
H        17.57964329239456    1.88583553911330   13.56100972581989
H        18.11347034846079    1.65597084502999   11.87437924447012
C        16.77232779764369    3.32522120082471   12.16294116705908
H        16.52342428718207    4.04854511757302   12.93292999101610
H        15.89040449051025    2.73661216187683   11.92760201278130
H        17.09462834702994    3.86146881546717   11.27493534442122
N        20.20908532426119    1.68386933421032   14.28424222847905
N        20.04667991810032    1.02858850774804   16.36931682899504
N        20.61988561906197    2.91190568141884   18.38523302471605
N        21.22274047403485    4.92201758396236   17.75310251271249
O        20.98680965959338    5.84462483922283   13.57000712983545
O        20.71780670213448    4.30144550533440   15.08522444365066
O        19.04541810136466    3.19296610221249   12.89089682010722
O        20.17296090916832    6.74536797270053   16.68309316968402
Zn       20.20133771414103    0.87261357788710   18.43860188622011
Cl       18.19588058293271    0.55593897067318   19.29690118292968
Cl       22.09708437813591   -0.13248796148373   18.83834812137550

