43
CSD_code = NELYUY | q = 0 | S = 0 | Stoichiometry = C15H21Cl3N3Ta | MND = 6
Ta        2.43868731815002    1.31689672372591    3.21925001719699
Cl        4.55019924031245    2.23263057901898    2.76064937606405
Cl        2.99109224602709   -0.47010793553370    1.88780489449117
Cl        0.84794346160523   -0.03079980429165    4.30460033038735
N         3.89563604151095    0.11793217074953    4.96457529213261
N         2.16408662821482    2.75676525606148    4.52954446470670
N         1.25137411830366    2.16206080472427    1.88192077845490
C         3.47886383192295   -0.05459105954158    6.21560296604323
C         4.18752383977173   -0.78000107328972    7.15262904389478
C         5.39869003609600   -1.37066084769999    6.78893912153802
C         5.82439833951601   -1.18493526653333    5.47366152508594
C         5.04688840512573   -0.44183937785491    4.60609309299565
C         6.18599201867876   -2.15333977718620    7.74825916496103
C         5.55474462021405   -3.00786989370042    8.65003896924728
C         6.29809113927141   -3.74673754889060    9.55120446912708
C         7.67852314253219   -3.63454584005268    9.57267774872275
C         8.31428218755075   -2.78439667009186    8.68290611911292
C         7.57557676672323   -2.05241477176786    7.77225973269030
C         3.13569596754797    3.44899236293320    5.34370262880502
C         0.83471557456267    3.10671392953160    4.98124546665003
C         1.24712256196042    3.56818436828384    1.55128952240777
C         0.42003140530460    1.41272757236862    0.96745610736697
H         2.52943146519500    0.40057671010641    6.46310480279641
H         3.81089259467049   -0.87518753334120    8.15899490482597
H         6.74080024665355   -1.63357836563702    5.12415029491037
H         5.35181468681197   -0.28374146703616    3.58037285557952
H         4.48016557670875   -3.11250152234044    8.62411911866882
H         5.79899299641245   -4.41263279591159   10.23935932394408
H         8.25729784325947   -4.20853755611137   10.28058405146422
H         9.39001384714068   -2.69171070783735    8.69869853638928
H         8.07402629574002   -1.37799656044539    7.09174545420550
H         2.95512650763947    4.53026375009695    5.34099133512427
H         4.13348569754938    3.26113365999418    4.95296383878460
H         3.08989034311564    3.10430921228256    6.38528652866979
H         0.63967186817997    2.66936146850882    5.96837470561680
H         0.09610035391496    2.71716508814352    4.28533381276250
H         0.71840940772276    4.19301819626019    5.06026880665629
H         1.70168258407415    3.73169539408322    0.56623396345029
H         1.82811077702368    4.11152723160748    2.29492170817491
H         0.22631356739013    3.96747330483354    1.52628723142434
H        -0.57069609972635    1.87242348198160    0.87586042871692
H         0.29577329321774    0.39427230460183    1.33526204305087
H         0.87443725640915    1.37330280520097   -0.03112457729927

