38
CSD_code = NEXMUZ | q = 0 | S = 0 | Stoichiometry = C16H14Cl2N4OZn | MND = 4
Zn        3.69689789275810    5.52491209253426    8.21085534553908
Cl        2.86772095534102    6.18875040217376    6.30621471342529
Cl        2.87135217580925    5.82768862129076   10.22601591082367
N         5.66791428657982    6.30779295562268    8.24836656936631
N         4.58926128062358    3.66169348532241    7.65585408655658
N         5.89373792609200    3.47486663952157    7.86272549232918
N         6.72448589548731    5.55940188276376    8.55689845930107
O         6.18462514029143    6.14035714109456   10.98112120175744
C         4.24705281671545    2.88626919289487    6.64468440508385
C         6.58924410993921    4.17083902492066    8.92357845673722
C         5.87931043583869    3.91663957709261   10.24866170057302
C         5.35563876803855    2.16700136949495    6.18985938145534
C         6.12031842527372    7.51539195577837    7.96957102851254
C         6.39259830338018    2.57468538255331    6.99524187323111
C         5.43301669242982    2.62162718715934   10.48937390502375
C         5.68788853717970    4.90226795517007   11.22543857696669
C         7.51012209179283    7.55236185010714    8.10539980452349
C         4.77613020551151    2.29643016083657   11.65848636797936
C         7.85904339341653    6.27718907799303    8.48280202006431
C         5.02805821742006    4.56017489438018   12.40452458717188
C         5.66569256407797    7.23949225259906   11.72610635064792
C         6.22655383042942    7.34601908422051   13.06126566605413
C         4.56938054060962    3.27669608603848   12.61304370055598
C         6.72518761224472    7.39649026029618   14.14838747305661
H         4.04908749519984    3.04211718817520   13.52860774429406
H         4.42532851561352    1.28915041627257   11.81772862973277
H         5.94891544901248    8.12318558015463   11.14335138238080
H         7.42514310991060    2.28821607005755    7.00959208169505
H         7.60776656283323    3.75739333095467    8.97034531115810
H         5.44239140294687    8.29332472750163    7.67775000241509
H         5.39017910876700    1.45837964654014    5.38927865331956
H         3.23820566606744    2.87898426665664    6.28317184299510
H         5.59655443880313    1.85736440699650    9.74266288977286
H         4.57018469091691    7.17060575148600   11.76687272088491
H         8.81529021551183    5.84926323982505    8.70634376497254
H         8.15985404897618    8.38781843412765    7.94873985348910
H         4.86990215300425    5.31014727118790   13.16157351936127
H         7.13866504512234    7.46511113819405   15.11020452679686

