56
CSD_code = NIDMAO | q = 0 | S = 0 | Stoichiometry = C22H26ClN3O3W | MND = 6
W         2.14795230732808    2.39234203963765    0.32695427389195
Cl        2.06708003555109    0.02982346903546   -0.14051840670863
O         3.62213061095211    2.31619718870407    3.06472375178923
O        -0.43779775421091    2.53661851033341    2.05531399546149
O         3.07881927959262   10.45588885143061    2.79974305964965
N         1.12286606961624    2.75645681584558   -1.71002560293588
N         3.97743894823239    2.39062098165263   -1.02774661217048
N         2.21390995627805    8.80176960848131    4.11911897329624
C         3.10940890841078    2.22271896168407    2.03657866936309
C         0.49201086104896    2.39569146344728    1.38895415822401
C         2.21279451309761    4.19685469915377    0.94682315184001
C         2.21958660123175    5.35805008471827    1.70900399080397
C         1.69818049268465    5.35006731852294    3.02155141532449
C         1.70671613176998    6.48937159146974    3.78508589780876
C         2.23346820808908    7.68595685059208    3.28538402160908
C         2.75488502262801    7.71179384647302    1.99161344570596
C         2.74425574132258    6.57241412659180    1.22215374006087
C         2.62968148768876   10.07859668105467    3.86337079067407
C         2.45798314565203   11.00624691272528    5.02079091089880
C         2.20001586974524   12.34513012123990    4.73882013644583
C         2.03732742600229   13.25848782938567    5.76283074916753
C         2.14746665820620   12.84646261881105    7.08091640635744
C         2.43040546582987   11.52154648463863    7.36939807271191
C         2.58410658447544   10.60203790346621    6.34713934918435
C         0.29111843405409    3.96433545745331   -1.67658398779143
C         0.26437594808611    1.64389084987189   -2.12577808212642
C         2.21003645153665    2.94050283087537   -2.68670060265316
C         3.42100418147796    2.06845712284498   -2.34947916815423
C         4.95553807187462    1.36039432343863   -0.66522789001435
C         4.68547598787842    3.67278871718926   -1.06387650083190
H         1.80149657690266    8.63445466205329    5.02691556382341
H         1.29468665444034    4.42633615781321    3.40773553416463
H         1.30253115993864    6.46569542663743    4.78835408063578
H         3.16272837612016    8.63005870841249    1.60354807219102
H         3.15207408689943    6.60127820472395    0.22169490828804
H         2.12925139584797   12.64825316647575    3.70509983779995
H         1.82888644028449   14.29307466606776    5.53460003925767
H         2.02317186016014   13.55815585328381    7.88352112341604
H         2.53550809843384   11.20307756099683    8.39613823564777
H         2.83772349403775    9.57974099422114    6.59245218699072
H         0.87816560566386    4.81758273152724   -1.33551540062326
H        -0.12726365766186    4.18264379209302   -2.66903426539168
H        -0.53019316226427    3.82122082504821   -0.97438449448002
H        -0.51626705902169    1.48965119785253   -1.37926818864265
H        -0.20671714103394    1.85306880112508   -3.09668224243388
H         0.84055766624062    0.72272235207869   -2.19932524671056
H         1.86466013700837    2.69812483967138   -3.70351836458751
H         2.50520188514820    3.99443442846151   -2.68425309623430
H         4.18590648476944    2.18989928971990   -3.13486726891337
H         3.11209973550682    1.01793527700221   -2.32764836394052
H         4.46298936788861    0.38995605978836   -0.60047716204701
H         5.76326633936930    1.30436876898559   -1.40788106944058
H         5.38645241428696    1.59537893448068    0.30894257224979
H         5.10738037092275    3.87686229960576   -0.07986810769610
H         5.49934091098468    3.65126452875051   -1.80273798576269
H         4.00732031312020    4.48874621227614   -1.30707300453374

