35
CSD_code = NIGTOP | q = 0 | S = 0 | Stoichiometry = C18H13ClN2Ni | MND = 4
Ni       -0.39175171705218    4.91640435278116    7.64519895608068
Cl       -0.47901686162835    3.18979171414564    8.87118112555277
N        -2.31032964757029    5.10731593363004    7.51141551565761
N         1.43613562122409    4.79638868072930    7.71991012989764
C         2.11088071374950    5.35513345739597    8.72602424654017
H         1.55442232148227    6.01868039272695    9.37779055704544
C         3.45250663294486    5.10605263147637    8.95057784354242
H         3.95289278751924    5.57604213481326    9.78238833682580
C         4.13062423616447    4.24770988173525    8.09982981016058
H         5.17660426878098    4.02921515855151    8.25144223752328
C         3.42915345105776    3.67578322820228    7.05028907846334
H         3.91056295471655    3.00040912690250    6.36090291759752
C         2.08826526688599    3.97551246560833    6.89482050370297
H         1.51287400426022    3.53699291883746    6.08771558965995
C        -3.26828711499718    4.36589904458015    8.04063747207851
H        -2.96059717598652    3.52264843530427    8.64606181680586
C        -4.62463216882201    4.63649661171392    7.84328257440143
H        -5.35793984950392    3.99301727651276    8.30357343767204
C        -5.00856553627913    5.70905265906041    7.07255857874972
H        -6.05215533178778    5.93565143218939    6.90696890336285
C        -4.01592915657246    6.51521988426879    6.49768205229288
C        -4.26631617512787    7.65601983639940    5.68028248412293
H        -5.29474636746102    7.92304124715945    5.48366808796688
C        -3.24754126169426    8.38788665068309    5.16351039774304
H        -3.45590384710099    9.25084518875628    4.54643207645052
C        -1.88258052392258    8.05567410665829    5.40895043048185
C        -0.79480005985332    8.77998659585790    4.90190864779657
H        -0.97073191996905    9.64826503513230    4.28298949294207
C         0.48371138298610    8.37601565043750    5.19951189243957
H         1.32392510960668    8.93475697387334    4.80977973927429
C         0.73715342867862    7.25269215669542    5.99848917052123
H         1.77387464764740    6.99895468573629    6.18716154873679
C        -0.29378696009425    6.49303618666739    6.52962349632537
C        -1.60475687980874    6.93151117019757    6.21034741608369
C        -2.67491827247247    6.16819709457862    6.75069343550192

