27
CSD_code = NIKNUR | q = 0 | S = 0 | Stoichiometry = C12H8Cl2N2O2Os | MND = 6
Os        7.61114802365912    5.33495624308031    1.19104679645893
Cl        8.61095787381050    4.07508913615937    2.95947610686068
Cl        7.08633004708105    6.57759118446964   -0.78367675353733
O         6.09085090102455    7.17978005473887    3.04838466585588
O         5.10401428580404    3.64270881613852    1.07040970297354
N         8.76492226588994    4.16712979178398   -0.05390463890632
N         9.37780102885339    6.39551725510748    1.17032811788468
C         6.66628220735860    6.48417463141516    2.34583847680252
C         6.05266636225970    4.28019085680607    1.11676921493484
C         8.38315369316389    3.03380097991486   -0.63315521782522
H         7.37126595677516    2.70523153277681   -0.43701668026554
C         9.21181819797726    2.28595880209302   -1.45104121957655
H         8.84903896161924    1.37340264558244   -1.89509554629891
C        10.50263415410750    2.73601803771258   -1.67878667630915
H        11.18072163553678    2.18128652848228   -2.30873429278005
C        10.90660978494356    3.91457166870925   -1.07992270984906
H        11.90610395545781    4.28266805384624   -1.24102702411887
C        10.01466169158641    4.61484061348149   -0.26958496584705
C        10.35457775025584    5.87293954851223    0.40768674965586
C        11.59288341763326    6.50052564356462    0.28395771845123
H        12.36480293111370    6.07358183588472   -0.33434601127692
C        11.82841979322791    7.68318326244189    0.95977214981804
H        12.78108215892826    8.18264927145363    0.87378948566885
C        10.81603864154618    8.20938153749294    1.74642334613494
H        10.95055098706819    9.12783552266505    2.29406797724755
C         9.61190673080007    7.53137147359146    1.81897811523122
H         8.80385656251808    7.92001507209506    2.42426311261205

