46
CSD_code = NILFEU | q = 0 | S = 0 | Stoichiometry = C22H13BrN3O6Re | MND = 6
Br        9.39669116828940   14.50503172234879    9.80131820759164
C         8.42755608303719   13.67545610462217   12.75054382987328
C         5.65478093507703   13.59177429242200   12.14171009110626
C         7.20863642457385   15.92873004618795   11.69442144695613
C         8.05930462387035   11.02937089550723   10.85807189890565
H         8.39538805254136   11.12304994151352   11.88252208341329
C         8.27437271403399    9.85142626316532   10.15074911871125
H         8.78263415955711    9.03069111711479   10.63057462436041
C         7.84194513626631    9.75128330182220    8.84787541005159
H         8.01765315144330    8.83255178662417    8.31024128194445
C         7.18872832832830   10.84144372708091    8.25152441753217
C         6.69206204501891   10.85681066254167    6.89462571980290
C         6.08222154927004   11.97876269281304    6.40434652530227
H         5.71636646467773   11.98806470381517    5.39126853239958
C         5.91967942627286   13.14537082335533    7.18736618827835
C         5.31847362108746   14.31610345794550    6.69490929456953
H         4.95850823782831   14.34202478055859    5.67794267977664
C         5.21181884058917   15.40506639653559    7.52531526471857
H         4.76248494912299   16.32499868264857    7.18717352074836
C         5.69997151084563   15.32617965818970    8.83010325264667
H         5.62493033637288   16.17892561708094    9.49240141334291
C         6.38413164307860   13.16102945512153    8.51774135538090
C         7.02063608155915   11.99654789369077    9.05007811445678
C         6.40293473848513    9.45510135887448    4.87156620632882
C         6.76786167441194    8.11227142842613    4.32839714226968
C         7.44370847725308    7.09762098092627    5.00950030495998
C         7.70469311692429    5.88346499277817    4.35614787885949
C         7.30794028779721    5.67624968083215    3.05016569353583
H         7.52181550730498    4.73289794405571    2.56773640663301
C         6.63762700817317    6.68370261670747    2.37238411663645
H         6.32558855650020    6.52747371488549    1.35237418464696
C         6.37453467356479    7.87584193157863    3.00676525174703
H         5.85209584039647    8.67215435550987    2.50027205040057
N         7.45242147977087   12.07624280394290   10.32949044714391
N         6.27192723323608   14.24126555882555    9.32123232718841
N         6.86258700624950    9.71230967527681    6.13519710214565
H         7.38189179980770    8.96190408648576    6.56805044861963
O         9.15468891659839   13.43305495549585   13.60195396861719
O         4.68343215803947   13.31578414505247   12.68683636233316
O         7.19697562379191   17.05462229893266   11.90309178163794
O         5.74523692478097   10.23785172145051    4.21709631962078
O         7.87217348783721    7.21565774340474    6.30312433531001
H         8.30345118994587    6.37821397318976    6.53509718320359
O         8.36978156934368    4.93949336138783    5.10066525896513
H         8.50744399466497    4.14709129127025    4.57125111203933
Re        7.29271325238142   14.04073535800595   11.20487984528688

