51
CSD_code = NINWOW | q = 0 | S = 0 | Stoichiometry = C26H16Cl2N2O4Pd | MND = 4
Pd        5.85869634377154   -0.00220723638700    0.00085772013420
Cl        6.71086599909577   -2.06643115473812    0.34513965772111
O        11.27076719318659   -0.49943094792247    0.28141523742629
O         9.49375338869499    0.87935700382927    1.63978618229380
N         7.39727153016447    0.72655697675010    0.91750508703074
C        10.53857738477822   -0.42317163252017   -0.70212912206739
C        10.93476678633736   -0.92805365803321   -2.00411303146094
C        10.13863176598129   -0.81774121039938   -3.09808431382705
C         8.87764964821991   -0.19395864048081   -3.01491795660598
C         8.41086078345508    0.27493069196658   -1.80778709461173
C         9.18945323239228    0.16496300618934   -0.64701041888560
C         8.68664050878660    0.59383794642546    0.61143814917778
C         8.68641350194816    1.21601066395009    2.67360368455216
C         8.99412542969318    1.59549343363761    3.96692634857504
C         7.92215206311882    1.88584101792332    4.79324679499053
C         6.59925866051795    1.81021489413157    4.35006938811476
C         6.28513639617753    1.43173599873080    3.06043479961096
C         7.35575660022589    1.12591419904744    2.22633710876089
H        11.91305114621627   -1.38103294279043   -2.05900006128055
H        10.47247308983259   -1.19379371233459   -4.05461256849334
H         8.28546754213428   -0.07022772849436   -3.90922464994554
H         7.45269313739850    0.81303469571247   -1.77571671643951
H        10.01529223424271    1.65906030339492    4.30302867055601
H         8.11425279253896    2.18654512059693    5.81150139962847
H         5.80555553141528    2.06220790304191    5.03659718194490
H         5.26754537720284    1.39473349294234    2.68881873927540
Cl        5.00636959518956    2.06212554463703   -0.34333682579590
N         4.32007787211700   -0.73027566311183   -0.91642590560285
C         3.03075840857365   -0.59425582282349   -0.61155403895416
O         2.22386808813932   -0.87621305318630   -1.64103816477901
C         3.03131489666472   -1.21374374741788   -2.67450072342251
C         2.72384290806761   -1.59042538099663   -3.96869731869502
C         3.79582175145967   -1.88271022418651   -4.79433169875723
C         5.11846364046793   -1.81167061631519   -4.34965249732912
C         5.43236224771481   -1.43592149057588   -3.05915882603247
C         4.36177586751441   -1.12806207176204   -2.22575373417240
H         6.44966870614007   -1.40252905974063   -2.68643667478867
H         5.91213473126394   -2.06509498553945   -5.03569250947526
H         3.60390110968830   -2.18130240429710   -5.81324126256767
H         1.70284858316531   -1.65047527863280   -4.30597374170657
C         2.52818768449991   -0.16530922864417    0.64693840186224
C         1.18072019753533    0.42663787415135    0.70178297764690
O         0.44923681713766    0.50562568688930   -0.28206038366550
C         0.78541261811443    0.93187720757314    2.00391214832018
C         1.58054955184261    0.81820324891898    3.09825366343542
C         2.83962979639007    0.19052387966985    3.01534921491551
C         3.30579139710119   -0.27862298426783    1.80808412341556
H         4.26245219189119   -0.81938041584408    1.77600953106220
H         3.43085313650397    0.06418326183018    3.90993314295196
H         1.24732614384569    1.19453432996698    4.05489201668704
H        -0.19147600855703    1.38789290953223    2.05858886927126

