29
CSD_code = NOMSUD | q = 0 | S = 0 | Stoichiometry = C10H15Cl2NTi | MND = 8
Ti        7.29979331585349    1.45670706060893    2.71693750534671
Cl        8.55498614873054    1.60753596451422    0.95019608857775
Cl        7.57054465407425    3.44998246068738    3.52832675476354
N         5.62796739493372    1.56436170917013    2.05204070493237
C         7.53045666165924   -0.80185132088989    2.91747111070188
C         8.63228093921727   -0.24378108320109    3.60583005446072
C         8.13670271154260    0.50774248589722    4.68921969907132
C         6.72588753809088    0.42028403562134    4.67813150199108
C         6.34956546035718   -0.40150410750851    3.58685502371207
C         4.95380647765455   -0.56014758446283    3.05764141074038
C         4.49210160897896    0.83822327343022    2.59175051810392
C         5.32752592514025    2.61638192455163    1.09473808645986
C         4.28907185805957    3.60960738575323    1.63329958484414
C         4.91011787248259    2.02445092937023   -0.25995365668938
H         6.26849824579153    3.17269491852733    0.93680649769794
H         3.69426489736685    0.73995330804066    1.84447959604689
H         4.26946180495826   -0.94645925967469    3.81760757911995
H         6.05987463877637    0.82185890658308    5.43349769500581
H         4.22264808660367    4.46704378648488    0.96916509032374
H         4.60129536239880    3.95519445938350    2.61910866047335
H         7.58374410098462   -1.49854232817276    2.08850645426836
H         4.83897347055044    2.81308806576348   -1.00384042104775
H         3.30486731605256    3.15280594899552    1.70730052222239
H         8.73256941368246    0.98705705120768    5.45670623431127
H         4.08224128903438    1.38672860912988    3.45822867559732
H         5.66378371520837    1.30361420412426   -0.57842026612769
H         9.67569525632403   -0.44286284057531    3.39342115498041
H         3.94523888870385    1.52615198065828   -0.19309077224730
H         4.96403494678834   -1.24981994401585    2.20873891235803

