61
CSD_code = NONNEK | q = 0 | S = 0 | Stoichiometry = C22H30Cl2N4O2Pd | MND = 4
Pd        2.64502142682824    3.03239657692771   10.51973398864902
Cl        1.43348181157931    1.52297773357457   11.76279840066604
Cl        3.93438939373888    4.47624922371570    9.29657361143005
O         2.42162990547757   -0.75775543489859    8.23177941052090
O         5.02781778533638   -0.55947197767144   11.14623670784138
N         1.46484838582368    2.72548434747170    8.96074981102901
N         1.74420574269181    1.98739860449324    7.88439803091700
N         4.97148671843192    2.86025558909241   12.36711481189072
N         3.79159562039839    3.40893195296125   12.07695864393707
C         0.19278031734214    3.08981194653652    8.89170257918854
C        -0.36762023613316    2.54902807945104    7.72865287101832
H        -1.37688276359035    2.65715247465903    7.38848336161387
C         0.64851119494687    1.84386377880119    7.11188090577007
C        -0.40440597627464    3.94615110146989    9.95338140839579
H         0.39613933933153    4.53296707456282   10.42982481352444
H        -0.88005471881585    3.32358369604351   10.71320574522626
H        -1.15052148160682    4.61734290339134    9.53413582399218
C         0.64383961711796    1.04156413148266    5.86373008960864
H         1.01719766208981    0.03911236197671    6.06727315541034
H         1.27445156876314    1.50128868868663    5.10228427161748
H        -0.36933045687073    0.97394326420825    5.47827962365611
C         3.07115803027106    1.46425995427594    7.68371456747184
H         3.79296272155019    2.26038475771749    7.91517491948344
H         3.17305314919766    1.15740694567839    6.64280027654570
C         3.31259323854972    0.27013643082292    8.60990614281025
H         4.35617389898748   -0.06707936571010    8.53724390071620
H         3.11395005199830    0.58037413146444    9.65783967746248
C         2.29997612848277   -1.78477945283500    9.19793999877512
H         1.43351291288772   -2.36964107157372    8.87480937118162
H         2.07646490582624   -1.34162926174488   10.17512480925605
C         3.52023414327132   -2.67869289856654    9.23574086336636
C         3.71241655285091   -3.51776287726213    8.14145075303774
H         2.98150659537922   -3.50259129951826    7.34596697159073
C         4.81082011068317   -4.34969914308862    8.05227186664202
H         4.93778965156061   -4.99032632553939    7.19225171029593
C         5.74442667569837   -4.35709231082925    9.07437760921416
H         6.60756857345309   -5.00376993144116    9.02112596625579
C         5.56569908812895   -3.52866552650752   10.16507200439958
H         6.29585691043766   -3.52841666468370   10.96124289947123
C         4.46470438584327   -2.68343651206180   10.26351092026445
C         4.37911473584673   -1.77920524488586   11.46594031242711
H         3.33849398873335   -1.58255432402700   11.75683230059218
H         4.88281423280737   -2.25070767674083   12.32458773857509
C         4.84462747637338    0.43071680806177   12.12731899528440
H         5.32730829946174    0.13346469837702   13.07268710123143
H         3.76897458985300    0.58130314880764   12.32133859671760
C         5.44337030792649    1.74264791678581   11.59835317315819
H         5.10376223843019    1.88054362737078   10.55578258092589
H         6.53367250433695    1.70995525546014   11.61617769284026
C         5.50424037557565    3.44062089837261   13.46532257091026
C         4.61357498088945    4.41651426521791   13.86933429997777
H         4.72077487007745    5.08138236637603   14.70141502707192
C         3.54756575613496    4.36144449805167   12.96273949959064
C         6.81509828665702    3.03907213874341   14.03461602397157
H         6.80997169921821    1.98810418942595   14.32092046663856
H         7.02761462162599    3.63893128711159   14.91470346145223
H         7.61345639333970    3.19236493619501   13.30871166180269
C         2.29557166365123    5.16095868772344   12.85987361277692
H         2.26655100894581    5.66198005927561   11.88388253582935
H         2.24703549403636    5.90927165516956   13.64577914340969
H         1.42995789441104    4.49453511360144   12.94193991067113

