33
CSD_code = NULMUD | q = 0 | S = 0 | Stoichiometry = C15H12Cl2N2OPd | MND = 5
C         0.75999291118465    1.32620941335042    1.60511745143935
O         0.15793948242166    0.53963578316252    2.16481694015892
H         0.13674988845108    4.92491986744045    1.04049786744356
H         0.73999737461423    6.47083603464735    1.68647855464406
H         1.40916585233759    4.93810018219979    2.29652403586597
H         2.58670374118359   -0.12122288226128    0.11808854951129
H         3.92166614515676   -1.18961142569426   -0.40151992322876
H         2.51054457601983   -0.97483241753602   -1.43990356216186
C         2.07817624001219    5.47660888080618    0.34205836206379
C         2.57230279350556    6.68833543392923   -0.16740123374983
H         2.18655441368846    7.61875495997638    0.21891626023594
C         3.53216771095563    6.67791407578623   -1.14522098689571
H         3.92418261429660    7.59871257028859   -1.55163686567567
C         5.00395078543400    5.35686242699594   -2.64205228708092
H         5.39587904249082    6.27670877816338   -3.05025298298164
C         5.44422799680984    4.15518918366957   -3.08647293546008
H         6.19667790030988    4.09061378348949   -3.85865856224188
C         5.34421648507219    1.67112228917451   -2.96893779040335
H         6.09671584239481    1.58959442870706   -3.74030651065620
C         4.79395052231824    0.55404155604097   -2.39723528147521
H         5.09716513339020   -0.43529069658907   -2.70349004700718
C         3.81820656932368    0.70211293443986   -1.39357672197813
C         3.46913352736945    4.27145431348038   -1.06348543363646
C         4.01156972905390    5.44840931110816   -1.62610167332117
C         3.94079934545193    2.99729836885844   -1.53645463866802
C         4.92531412743699    2.94656203855537   -2.54677218102198
C         1.02676064622032    5.45993022526679    1.40646613650818
C         3.17519033904328   -0.47329663757731   -0.73736801263913
N         2.52584821182952    4.31160941225249   -0.10383298917064
N         3.42018582230476    1.88889453463684   -0.99084979372708
Pd        1.67353803232211    2.63584106041346    0.73353782218520
Cl        0.07025753656036    2.77117889811824   -0.91304093694249
Cl        3.27216866103604    2.76720331469685    2.38236937006736

