67
CSD_code = OCIXED | q = 0 | S = 0 | Stoichiometry = C28H35BrP2Pt | MND = 4
Pt       -3.70302049152253    2.63672333428345    6.74071445601722
Br       -3.70294573310390    5.11456940358721    6.74021312842871
P        -1.63641933502946    2.29540257556991    5.88191267985291
C        -0.70195665856230    3.37210610114657    4.66393198175615
C        -1.72835143627426    3.79609547976268    3.61304822072538
H        -2.57150195492442    4.29623324127112    4.08931405736810
H        -2.10295208568036    2.93557228184779    3.05846526180930
H        -1.28213247948631    4.49143057756063    2.90430117952914
C        -0.19031996923828    4.59330237116881    5.42637822582115
H         0.54013397266788    4.30217049783017    6.18080538868436
H        -1.01013057395473    5.11158120136207    5.92000704479072
H         0.28393071301786    5.29173599890599    4.73886368256444
C         0.46234818335525    2.63262263262397    4.01125513461558
H         0.95678008629595    3.29712608105221    3.30337676357780
H         0.12362170471868    1.75408967280012    3.46517657617325
H         1.19768219631765    2.33031998919617    4.75405258020430
C        -0.52799776470993    2.03743685244987    7.29811840210540
C         0.61755956216563    1.25001984318487    7.28269445437078
H         0.91460421402640    0.72820002191896    6.38428485016186
C         1.38323088293617    1.12097548938516    8.42778711540326
H         2.27432593307362    0.50991449989971    8.41025113804431
C         1.01260521104544    1.76879243048469    9.59494979948901
H         1.61758497591901    1.66526917921873   10.48374270984213
C        -0.13650247347605    2.54185297729027    9.62296044985821
H        -0.43337208887548    3.04054785164243   10.53377457287037
C        -0.90254849297943    2.67235971551067    8.48048832544814
H        -1.80887454056137    3.27416281479225    8.49421368806727
C        -1.78549312420749    0.62843018784103    5.12315397515112
H        -2.18513268510954    0.74552751509000    4.10889211831492
H        -0.82967849376866    0.10285966282531    5.05643778161680
C        -3.70279002612250    0.59654112677427    6.74077779777673
C        -2.77598890470714   -0.11923932466161    5.97674815329696
C        -2.77470099934952   -1.50719782979386    5.98765720083558
H        -2.04678126886040   -2.04660536926599    5.39668735858888
C        -3.70199487910422   -2.20226934914031    6.74152357868989
H        -3.70163818998317   -3.28233378909840    6.74188383755503
P        -5.76942537605018    2.29522909013579    7.59994230120483
C        -6.70239281956891    3.37187870412915    8.81910526911321
C        -5.67494005864936    3.79426416485883    9.86962435630191
H        -4.83149121479132    4.29360452796863    9.39303192853422
H        -5.30097799634724    2.93310190022807   10.42364615118775
H        -6.11989852003474    4.48984602404058   10.57893262936941
C        -7.21350572996906    4.59403675079460    8.05784031448718
H        -7.94433154356616    4.30398446533405    7.30334912683242
H        -6.39352670374256    5.11223103679504    7.56442447148923
H        -7.68715409324378    5.29219123761493    8.74607064216367
C        -7.86693562027255    2.63301206620677    9.47202505245400
H        -8.35981016246947    3.29726261774122   10.18122771205928
H        -7.52878251056758    1.75335904312279   10.01665062527272
H        -8.60338232445450    2.33259114944563    8.72957245548881
C        -6.87886353544311    2.03748092451043    6.18447865875466
C        -8.02488214930285    1.25074569377539    6.20103342732615
H        -8.32196599975026    0.73004798400940    7.10008947058079
C        -8.79088428235377    1.12086273041234    5.05628057268675
H        -9.68235753118326    0.51036526912842    5.07472261237845
C        -8.42020521087674    1.76723405755695    3.88833785856379
H        -9.02546804651644    1.66307958821637    2.99980384717951
C        -7.27077706519096    2.53977898423710    3.85925691187273
H        -6.97390754636911    3.03735769558717    2.94781889614192
C        -6.50436469204925    2.67110743846862    5.00139424121806
H        -5.59770832968661    3.27241651747777    4.98683280210206
C        -5.62014248844394    0.62811280307818    8.35842705968451
H        -5.22095755314419    0.74500200474710    9.37289972035886
H        -6.57595314642106    0.10244764744142    8.42455863935095
C        -4.62923298084956   -0.11934283383944    7.50511276033240
C        -4.62971649214111   -1.50731469214812    7.49495281157899
H        -5.35734126249613   -2.04680053739642    8.08621300452927

