67
CSD_code = OCOCOZ | q = 0 | S = 0 | Stoichiometry = C32H24Cl5O3P2Re | MND = 6
Re        7.20663274958121    3.05719524846763   15.65455135738259
Cl        7.98767679512291    3.76322299586159   13.60200702272295
Cl        3.65826386696629    6.62455199553748   15.18706996219585
Cl        4.65933176803753    9.37347399081717   16.28394304911864
Cl        7.52137006202355    9.63416025480384   17.45367800159489
Cl        9.40812479188804    7.14198770250156   17.54208489503839
P         9.25389810033723    1.75032034004368   15.55533324309003
P         6.41866863196883    1.32357960219421   14.13367364147055
O         6.63042362306683    2.18347401915685   16.97522349929259
O         8.10809006307816    4.69381917996685   16.45045486446516
O         5.71021281680855    4.47841084284413   15.45497225254879
C         8.91794906364800    0.23324559976106   14.54473136077540
H         9.85724530927106   -0.18433899651384   14.17091191624030
H         8.47447551956218   -0.48253368205954   15.24720142649794
C         7.92756198860567    0.52490533159627   13.41774063979536
H         7.66150457291487   -0.39226840690160   12.88715337838353
H         8.34259105510886    1.23876541467839   12.70079430584018
C         7.36576063311119    5.76605918376132   16.46431892111755
C         6.05325205580303    5.64657881349635   15.92384077277609
C         5.23424432023999    6.77430584777321   15.85787299718711
C         5.68657032607967    7.99688782761665   16.34357754323078
C         6.97105671970456    8.11387316994607   16.86953377302266
C         7.81284123992850    7.00760884662187   16.91616561694084
C        10.64171758459825    2.65552991529368   14.84277317694711
C        11.23814263967849    2.35830340545381   13.62430821911460
H        10.90255760053607    1.51652128629056   13.03640402172473
C        12.26379008874720    3.16101844851607   13.15496037944854
H        12.72888608223363    2.93423665044492   12.20682636234728
C        12.68356900490860    4.25901340804222   13.88717468600335
H        13.47634269777677    4.88641407168712   13.50785644330043
C        12.07937345445276    4.56336793041793   15.09792882291091
H        12.39476777319952    5.42921108469475   15.66025173267952
C        11.06057643571000    3.76416647449306   15.57756805017947
H        10.55871342168283    3.99991389207380   16.50680985525412
C         9.92709042079681    1.06802281264301   17.09344002104235
C         9.11059182528722    0.96845845469472   18.21358924550071
H         8.08979626613043    1.32680379622216   18.15022961872628
C         9.61527541083373    0.43259195811618   19.38532042852136
H         8.98478896341618    0.35836799236145   20.25820253347762
C        10.93031450150473   -0.00090022777143   19.43948748816681
H        11.32483473524373   -0.41481263144796   20.35544817259592
C        11.74613418142695    0.10259030689172   18.32329839575807
H        12.77226813097587   -0.23065995062982   18.37061402099959
C        11.25026752716613    0.63767842765404   17.14885991786056
H        11.88518695829247    0.73172960374659   16.27842760713297
C         5.38739909523499    1.82330496431969   12.73524292297241
C         4.66989057811042    3.01112892865372   12.82803623144720
H         4.77415728135324    3.63110282722441   13.70718085843522
C         3.84288100533995    3.39674596730881   11.78804399497938
H         3.29200298450295    4.32255534346864   11.85706694522626
C         3.72565630766292    2.59855156445092   10.66213061212378
H         3.08296160356038    2.90161757824899    9.84897369682635
C         4.43127497847266    1.40842195299948   10.57571377765880
H         4.33502871271759    0.78562681102394    9.69844372550248
C         5.25939004624492    1.01411116481094   11.61029031404165
H         5.80149379725114    0.08212107885476   11.54247709223067
C         5.44035188043521    0.00188814120018   14.90822589207415
C         5.55389376195115   -1.35293072485514   14.62244018060348
H         6.29003694835853   -1.71319998707634   13.91888689456027
C         4.71586624975984   -2.25925441897430   15.24972463898222
H         4.80865080861990   -3.31300973081227   15.03108480183943
C         3.76321935082759   -1.82058366680088   16.15359862800951
H         3.11440149920204   -2.53389549459649   16.63943562062871
C         3.64581975118110   -0.46864301215955   16.43837309125310
H         2.90640873381544   -0.12747413288419   17.14670070894140
C         4.48137604142589    0.44065236872233   15.81908948529796
H         4.42520680628661    1.49801024481994   16.04502624593119

