33
CSD_code = ODIWUU | q = 0 | S = 0 | Stoichiometry = C14H9ClN5O3Re | MND = 6
Re        1.09022293179138    2.19502064967226    1.95845004425951
Cl        1.94790595265792    3.09104892689045    3.97458661164379
C        -0.70921210494739    2.01472185959866    2.66788804442821
O        -1.72562867866904    1.89861050601271    3.17922460837681
C         0.71195889662538    4.03094474422322    1.41876682572614
O         0.56520144276114    5.14639987663625    1.21900421983378
C         0.57877994574484    1.36086842580660    0.28429667289137
O         0.29109903983811    0.84408847693555   -0.70408880885904
N         3.39748746349919    2.24019924834683    1.57488147971348
C         3.98370016958944    1.43794286403621    2.47489969100145
C         5.28405963496375    1.61739831419373    2.92624597416664
H         5.70489663093868    0.96160691702885    3.66872340621673
C         5.99928732710233    2.70371747766264    2.44811041679061
H         6.99604122991405    2.89934764025755    2.81042133730940
C         5.42026037331873    3.52409144368063    1.50351970183968
H         5.92201216882747    4.38294291818751    1.09114519096735
C         4.12095514640832    3.24512266487399    1.07375474733873
N         3.19523430236453    0.39555025952561    2.95338176728267
N         1.87125717729568    0.40911231811486    2.75983187319625
C         1.38534219862821   -0.67458900365539    3.32793358282639
H         0.33252551750781   -0.88252704074440    3.30884306562306
C         2.42282297280375   -1.42338722391077    3.90152066628348
H         2.33904605248510   -2.35037768896563    4.42926673654503
C         3.56421289679097   -0.70930055965749    3.64627770905684
H         4.58297570350380   -0.92338055391478    3.89373590371915
N         3.57821449093365    4.05459776218150    0.08997122634389
C         2.62849047716292    3.76171528153067   -0.84521869678953
H         2.17716515743773    2.79384033120261   -0.91485595265594
C         2.48173434423748    4.87851805806755   -1.61909979227341
H         1.82524203379243    5.01319830340733   -2.45273383435717
C         3.38940111481521    5.81297062854770   -1.07872746121481
H         3.57847375857680    6.81976862624841   -1.39300220998130
N         4.04843423129793    5.30141754798593   -0.07035474724164

