37
CSD_code = OGIGUG | q = 0 | S = 0 | Stoichiometry = C15H16ClNO2PtS | MND = 4
Pt        1.86412083464044    4.05931787980571    8.23139141478826
Cl        0.71356332027723    5.72448860350540    6.96315905670896
S         1.88614691928518    2.65414186019803    6.47973588485354
O         1.24210076190447    6.46603921239008    9.78087240837057
O         3.09398277943457    1.95742451288174    6.07659907835454
N         1.80864680609729    5.21695531891072    9.82899225172500
C         2.78863493256968    2.85473839919628    9.54935336861236
C         3.30452573418235    1.58248380282689    9.37502626360778
C         3.89606389275449    0.90682376427291   10.43540628192776
C         3.98157057510039    1.49505774813785   11.68668830407708
C         3.48064605875705    2.76770667855873   11.88904001059415
C         2.88536467348414    3.44709839777893   10.82910365409183
C         2.32690554834846    4.78779275076300   10.93192728698951
C         2.34765866894685    5.59501755932379   12.18397811964990
C         1.08767273365862    3.22070811125750    4.94137025410057
C         0.65174306876572    1.42166614727791    6.92524363357318
C         0.72856873120977    0.12612791460522    6.45274955115538
C        -0.23940444909246   -0.78888375264466    6.83269338575855
C        -1.26706178378074   -0.39766028852922    7.67609748470758
C        -1.33128697954758    0.90370401961498    8.15236420168282
C        -0.36347087608297    1.81902384555505    7.77883353163359
H         0.92173638049780    6.55654598906526    8.83852852512988
H         3.26719662812492    1.10925508743972    8.40427017584278
H         4.29466974167176   -0.08529231178381   10.28080083341436
H         4.44370983162435    0.96195574038814   12.50437838996949
H         3.55319603898517    3.22896828274431   12.86264598676339
H         1.86774223440017    6.55524741565132   12.01685639438105
H         3.37623240315038    5.75654680040986   12.50169404694555
H         1.82583617813075    5.06327982255924   12.97775726777856
H         1.70195947559871    4.00544984347998    4.51186382130725
H         0.10083955175235    3.60063542613192    5.17967386457350
H         1.03519535402949    2.37054282282140    4.27055390406712
H         1.55072053341103   -0.14932316490666    5.80928566971892
H        -0.19103341706546   -1.80555927349882    6.47296234121416
H        -2.02014291727358   -1.11308120027872    7.97049747601284
H        -2.13029087960084    1.19957358545634    8.81474283967728
H        -0.38555908834544    2.84658264863453    8.14326303623944

