43
CSD_code = OJEDOY | q = 0 | S = 0 | Stoichiometry = C10H25Cl3N4Zn | MND = 4
Zn       -0.44774175231971   14.01938035725470    5.03572618696011
Cl       -1.00424221896885   11.96060440510311    6.03191091463402
Cl        0.87630558929590   15.17662233214189    6.52003170172370
Cl       -1.70932932529841   14.83078687637530    3.40871515036277
N         3.38562348673780   10.40842984879232    6.55612833917140
H         3.30984432489114    9.50509267661821    6.10785683694463
N         2.37635994630333   11.71751483115263    8.20682288758973
N         1.24488966944335    9.90616189810844    7.27241354354418
N         1.29830846190154   13.17084988984816    3.83481878973224
C         2.29755477922914   10.72517530320001    7.32035233640193
C         3.63551437704758   12.20873245833639    8.71559150085688
H         4.43115660487741   11.49102502800914    8.53024504451973
H         3.53147535801585   12.34852882327401    9.79355236102987
H         3.89186589157794   13.17786249143367    8.28117671565027
C         1.24080645603509   12.54213937810923    8.57372727141025
H         0.36669731914166   12.27645110321060    7.98643887268762
H         1.47407784858566   13.58235276669387    8.33135104244229
H         1.02640601223598   12.46476241107612    9.63978144818436
C         0.27159692231355    9.77950422300816    8.33480018930059
H         0.68130675810308   10.13570037500926    9.27376519167701
H         0.02756615119587    8.72110132551145    8.43748266125945
H        -0.63887769221415   10.32515844714477    8.08051482802126
C         0.84326111999149    9.20423556125390    6.07127976047838
H         1.47846977822720    9.45021534329074    5.22519560886036
H        -0.17282713047911    9.52735231561006    5.83156211463655
H         0.85802030142292    8.12529437592644    6.23699447358335
C         4.12936273739931   11.36134471172248    5.74109876881453
H         5.06959712839464   10.87470569403817    5.47071399788334
H         4.35574797283854   12.24762401168675    6.32997104504592
C         3.37414784581744   11.79434052536594    4.47905673804411
H         3.11021082173758   10.91726695620849    3.88366245464465
H         4.04427657528221   12.41802825947132    3.88680270376424
C         2.12482174198460   12.58298017769407    4.88576984570751
H         1.46035278385075   11.93159533470282    5.45655105504422
H         2.42389432860643   13.40400820795340    5.54176151227921
C         0.79700245055922   12.17884578876443    2.89048490820620
H         1.59733067644778   11.76534036656350    2.26439466623760
H         0.05909920199553   12.65260922457312    2.24525275895597
H         0.30566960507725   11.37494582960126    3.43641758130019
C         1.98089068239127   14.24383015188405    3.12062216411461
H         2.81004564087147   13.86811805926981    2.50868730658230
H         2.35815623711004   14.97028233724492    3.83785958074577
H         1.26460453240980   14.74289951781621    2.47025714098907

