49
CSD_code = OXAKUU | q = 0 | S = 0 | Stoichiometry = C17H23Cl2FeN5O | MND = 4
Fe        9.90708823978955    7.07699056609610    2.42304590899647
O         2.76137895514964    7.03760541195560    3.46676642944122
Cl        9.84869049075743    5.14223799882216    1.86640700249669
Cl       10.25648928243794    9.00493793417903    2.89714755726771
N         7.98341568199391    7.61597040349641    0.99692791040503
N         6.71218807885518    7.30367997696266    1.28773232186232
N         8.76422139833306    6.80575254611722    4.61789193218410
N         7.72544301835576    7.53221538558438    5.06707915826519
N         5.86317830883067    7.38734641037086    3.49669034722831
C         7.95808215979293    8.35112052541129   -0.10319966480680
C         6.63037373220844    8.52682079026863   -0.52483399853304
H         6.29064596218829    9.07304771344592   -1.38069256820907
C         5.85717638772985    7.84707502795047    0.39154586733436
C         9.21158276827763    8.86006736541029   -0.71446364946004
H         9.23253107193066    9.94799567004152   -0.68914367012689
H         9.29127913566479    8.53761175639787   -1.75082655699993
H        10.06233012197565    8.47735049547409   -0.14956830447115
C         4.38689923621574    7.68031923364507    0.48949105218697
H         4.11041338746709    6.62746307517488    0.42783300137478
H         3.90158702709426    8.21574274674735   -0.32133792678493
H         4.02834176693833    8.07048100538450    1.44034401892187
C         6.39697772680279    6.52713643544755    2.45150283751544
H         7.32430904104393    6.01356169627977    2.75329688083475
H         5.63337118202645    5.78784648554723    2.19567576781956
C         6.86002277348271    8.21717123804438    4.12964027757227
H         6.35228212250047    9.02695281236468    4.65976784866674
H         7.49896605682159    8.63790643522691    3.34520239839245
C         9.36758316000866    6.29404704465871    5.67975099853837
C         8.70154187256230    6.70195909227268    6.84509544158477
H         8.95831919046466    6.45833118179003    7.85551653872178
C         7.65981727130653    7.49805194415887    6.42076708281513
C        10.57238208538105    5.43525871551744    5.55590803601134
H        10.82277326437795    5.31298088891739    4.50214558286471
H        10.39042978686416    4.45630904107978    5.99612075701763
H        11.41436114205350    5.89178400684644    6.07312513507585
C         6.65785631954390    8.23390405464700    7.23499220414969
H         6.57478664993343    9.27032298408171    6.91105307886703
H         6.97157670941165    8.22174085754422    8.27535150558979
H         5.67313221195999    7.77125603114602    7.17283617187566
C         4.97906809700913    6.70052463865517    4.43362584060847
H         4.66514128317947    7.44256396742431    5.17154040982154
H         5.48534711163201    5.86903654728287    4.94810676207451
C         3.75837356811446    6.17421167057455    3.75664242056032
C         3.42227298260790    4.92031047216136    3.33370279476451
H         4.00963424296174    4.03025220926154    3.43416851845753
C         2.13716049718888    5.02906175464078    2.74803497743566
H         1.55986451475027    4.24085040362294    2.31110295714750
C         1.78997725980201    6.33876942086544    2.85789940402158
H         0.91303566423370    6.87606593099007    2.55659120261103

