59
CSD_code = OXEFED | q = 0 | S = 0 | Stoichiometry = C30H23BrNiO2P2 | MND = 4
Br        3.36071586740057    1.84514612815042    3.51304800961757
Ni        3.66981405064635    3.95535333310372    2.88208248012833
P         5.37904292337475    3.69598568826390    1.62284216356365
P         1.91023758354560    4.70389322312829    3.80793608259372
O         5.75558921112713    5.18482353227911    1.06221637281698
O         1.93326145603481    6.33399871661140    3.65579959335472
C         3.84502666017322    5.76684573403695    2.35970636505037
C         4.87959365596147    6.15787077369685    1.51279328503356
C         5.03224011837045    7.48127570663377    1.13015034394986
H         5.84594567645734    7.75823754057879    0.47836006690213
C         4.13122119172579    8.42431462224916    1.59693215990124
H         4.24411476283439    9.45617281631253    1.30225916748158
C         3.08644074509576    8.06642899993192    2.43427062945972
H         2.37974263715312    8.79725407198082    2.79436930334762
C         2.95330794766684    6.73988782326414    2.80904560842665
C         7.00783165627900    3.08012383170931    2.14748538707301
C         7.10396414752610    2.04074086226103    3.06420162778610
H         6.21239908045295    1.61624618874510    3.50348207194185
C         8.35038014129168    1.55591277581429    3.42022866978897
H         8.42510951626129    0.74872124215766    4.13334232738984
C         9.49507000983383    2.10636028913616    2.86871638998581
H        10.46678455572052    1.72806621041072    3.15037873456940
C         9.39679352903282    3.14566651213752    1.95684090467842
H        10.28997963093294    3.57594966250179    1.52754375532158
C         8.15593977864827    3.63299575625094    1.59235180759004
H         8.07026391630922    4.44313795489615    0.88322387201251
C         5.16541727632010    2.74113614961145    0.08789498673318
C         5.13134926388307    3.36168017204304   -1.15375215240937
H         5.23333484085474    4.43515144338819   -1.22367364413002
C         4.97030618774261    2.59989525655384   -2.29751662283605
H         4.94871063595676    3.08234771284596   -3.26402154906440
C         4.83436559944233    1.22491558644575   -2.20360727853669
H         4.70786696958025    0.63417157749270   -3.09894505463724
C         4.85456863208876    0.60747190330953   -0.96252925914913
H         4.73955861886108   -0.46327091509718   -0.88727360172274
C         5.01771380107209    1.36073595922946    0.18448533377885
H         5.01719935450274    0.88573119324369    1.15529227602140
C         1.30363689533367    4.50635677544524    5.49732078210501
C         1.30166145697695    5.56494524241951    6.39680123891038
H         1.65318169553564    6.53690635096695    6.08293099333247
C         0.83905016928471    5.36616631724482    7.68534927697470
H         0.82868564905337    6.18971367265463    8.38447971625825
C         0.39660024357688    4.11404550802626    8.07974334280497
H         0.04088726892444    3.96291791933363    9.08828103564194
C         0.41665315469834    3.05391079687039    7.18632997091627
H         0.08168199584037    2.07605276970798    7.49745050072169
C         0.87145184577687    3.24424552346232    5.89541620011585
H         0.90432798577825    2.41979858385770    5.19689441071901
C         0.46476639479494    4.24387111690860    2.79462994468698
C        -0.82282451190636    4.59697371083262    3.17745555285360
H        -0.97994403432981    5.11144882027749    4.11519122709292
C        -1.88848108084037    4.28488322363014    2.35391855940792
H        -2.89210635668036    4.55560869654204    2.64750563221352
C        -1.67176471285570    3.62303433092121    1.15487054931292
H        -2.50896693109926    3.37791564588128    0.51816758032316
C        -0.38756356813069    3.27431474950236    0.77055713715342
H        -0.21943655992639    2.75787799029710   -0.16265763614304
C         0.68111098554426    3.58797083541882    1.58998987220881
H         1.69589038467700    3.31416538454184    1.30081349839829

