60
CSD_code = OYOCOV | q = 0 | S = 0 | Stoichiometry = C15H35Cl2FeN7 | MND = 5
Fe        4.65355952013608    9.67260042740963    2.93545148784532
Cl        4.46982365574668   11.84927545651655    2.81141346545069
Cl        2.52438379338297    9.43757823628627    3.31415113065431
N         5.22004159390281    9.77845738028701    5.02390579080421
C         6.42942194671547   10.58575990276921    4.98255808512884
H         6.83496683084487   10.71606781725814    5.99415008256289
H         6.24371340236424   11.57126747342045    4.54881805480821
C         7.43496919786142    9.84897557786828    4.10209703528326
H         8.37648775389933   10.41054636742804    4.05121806699922
H         7.63877231880276    8.87672984315021    4.55486042365936
N         6.88058578760396    9.64478617374028    2.75634870379547
C         7.20732576478595    8.31094927031309    2.25774536899374
H         8.24837012826167    8.03698612357731    2.48476764770172
H         7.08143741208033    8.30503890586876    1.17202432256690
C         6.23170220521471    7.28655685050021    2.85184650393764
H         6.47806220207247    6.28678016579630    2.47553742232835
H         6.30816442170047    7.29461987878247    3.94145690570090
N         4.91467322196661    7.71437129973978    2.44798882154731
C         4.39968496740442    9.92858559364831    6.02038389735932
N         4.45013061814253   11.00683468603115    6.87301841594853
C         4.42117795194743   12.35756745741574    6.35677349098164
H         4.32614759430547   12.34297542058946    5.27284585789903
H         5.32263390619157   12.90974110219562    6.63857796655662
H         3.55259855930015   12.88382309455404    6.76436717503770
C         4.16304067152530   10.88199025996595    8.27986918171788
H         4.19640838256925    9.83442076988248    8.56828490008461
H         3.18508870100947   11.29617152942415    8.55122988352120
H         4.92569480169823   11.43059723183995    8.84174917478017
N         3.55967483771981    8.91024463636360    6.38493075656668
C         2.16018224227960    9.20120327468633    6.63729629370417
H         2.03087069773949   10.24725348858745    6.89293822899373
H         1.79928985525406    8.57735240215381    7.45796279647436
H         1.57548496834172    9.00114291340688    5.73556220795156
C         3.77004405392549    7.61236709692826    5.78646315802592
H         4.83762982769662    7.40082714419978    5.78655226494213
H         3.39531965112082    7.58184946457686    4.75979691130380
H         3.24761314487290    6.86965074202869    6.39040342674960
C         7.33384349518947   10.68751406198688    1.84863444426742
H         8.42570445880062   10.68014836746513    1.72550454347161
H         7.01706772143747   11.65309400532509    2.23653294187019
H         6.86566987879822   10.55311200790762    0.87395916408144
C         4.10991381281082    6.91684554040186    1.81579398799538
N         4.20995525205281    5.54172379253702    1.89616576100928
C         4.34427650219954    4.87677899450982    3.16953192486053
H         4.51302742885405    5.60830245936136    3.95337015985760
H         5.17596146085517    4.16584899361017    3.14854387516121
H         3.42766893055831    4.32319727869245    3.40556337546475
C         3.80916264813784    4.68228821606256    0.81055979593360
H         3.73526510695669    5.26148423648475   -0.10558020926595
H         2.84969940847704    4.18769005321932    0.99928921933426
H         4.56833791843460    3.90483650430728    0.68085790337043
N         3.20815168055118    7.39614396348969    0.90649480766575
C         1.80588048807616    7.04645693459290    1.03095589715356
H         1.69680323827968    6.10028949710526    1.55133939461033
H         1.35868988424415    6.96970830532022    0.03843506197114
H         1.29086331598630    7.81928296822960    1.61007783915579
C         3.41775515213681    8.69326020314856    0.29752508857139
H         4.48487785925889    8.92836201909314    0.29304148289024
H         2.87247760568530    9.48969566228475    0.81585871919253
H         3.05877016182839    8.64609047567463   -0.73350048698945

