45
CSD_code = PAQZIQ | q = 0 | S = 0 | Stoichiometry = C10H24Cl2O4RuS4 | MND = 6
Ru        0.70412819347658    2.21289054121402    3.07645180106451
Cl        0.74235374340766    1.51530157392174    0.84409564665813
Cl       -0.07014486041691    4.38409765285029    2.68129966742690
S         0.57921017698957    2.69769196577890    5.27549200434692
S         2.82915615263321    2.95119629913849    2.72040998581329
S         1.58815075948280    0.20427672369706    3.59329742827081
S        -1.49280094802750    1.61674511219502    3.18257466129623
O         0.14329537085150    1.50022482174410    5.97314214152606
O         3.73512755341374    1.91700339221848    2.25768238170963
O         2.52522175220355    0.39735427255485    4.68660696844294
O        -2.24918754372634    2.34936436129468    4.18035640588096
C         2.16922953869942    3.23742064875246    6.00466564738809
C         2.77270590859587    4.33503532823042    5.13486489693798
C         3.72904747832400    3.78869644940041    4.08975848367922
C        -0.46523938560068    4.04652965347555    5.89392061793898
C         2.88298199838648    4.26071578556588    1.46825302786480
C         0.34794042553012   -1.03688489400198    4.11498142208542
C        -0.78297831964073   -1.07358006836750    3.09266763783809
C        -1.92977464974687   -0.14911926012377    3.46102904165065
C         2.46020023283729   -0.79754255788592    2.35694467281226
C        -2.34009764185793    1.89896512936469    1.60509725888493
H         1.96533836423387    3.56816299837496    7.02017989283439
H         2.78636523890210    2.33988987242325    6.03059497614795
H         1.97116146061951    4.87641437008587    4.61844626987995
H         3.30441074470382    5.05279995978284    5.76386940744335
H         4.38102170444925    3.01719303741887    4.49565442309469
H         4.32969312685769    4.57590474700307    3.64028952547034
H        -0.45479072808115    3.99525504663041    6.97614162020755
H        -0.09789005996837    4.99280985036879    5.51911887957568
H        -1.46262497098483    3.85504876488223    5.51019205116662
H         3.92003120711311    4.46839867006062    1.23123307825448
H         2.36328850525234    3.87020058959550    0.59687396471826
H         2.35285328516579    5.12487691697995    1.85154884931950
H         0.86207660949755   -1.99019632091138    4.21027765821445
H         0.01187022562773   -0.70406619191194    5.09650837406480
H        -0.40000332726369   -0.77194974490262    2.11052399172550
H        -1.16271318262713   -2.09377621629703    3.00030788498979
H        -2.17385892909502   -0.20263566281127    4.52049140777553
H        -2.81925594867965   -0.35363154247831    2.86991394780908
H         2.89692349856777   -1.64358317205964    2.87404221263619
H         1.77038276823542   -1.09695968625754    1.57887835184649
H         3.23462880198834   -0.15883782996795    1.94342477035278
H        -3.40158489652137    1.73360988802203    1.74877690282276
H        -2.14819151208372    2.93523701132568    1.33831475668080
H        -1.90475792172313    1.24415171362710    0.85910500345709

