38
CSD_code = PAZXEV | q = 0 | S = 0 | Stoichiometry = C12H15AuCl3N3O3S | MND = 4
C         4.46087711203393    4.29572641658148   11.23413503169738
C         2.36412592941384    4.10919464822628   11.88056718731850
H         1.48388030134127    3.62550603578508   12.25014014201001
C         2.57902231314169    5.40247325110616   11.52763671985115
H         1.91844868541479    6.24447890190576   11.53068495271246
C         4.52064824713273    6.64891948030390   10.54824316482648
H         5.53776208284505    6.71413729114982   10.94449895874751
H         3.97104128710852    7.54450479222839   10.84128873688051
C         4.55025883404916    6.48045834170778    9.02004609098658
H         4.74076571266099    5.42799696632829    8.79898086321215
H         3.57733871057531    6.72086915138902    8.58962590310914
C         5.61546423309761    7.29380012073980    8.32406880412675
H         6.59618020736992    7.19179157581647    8.77729629476705
H         5.36221527129695    8.34208708363373    8.20933266199459
C         3.76110514167138    2.02965943566659   11.89831200280928
H         3.83278454719941    1.52641270549020   10.92894116409536
H         2.90890564986515    1.63395564557193   12.45524680638906
C         5.03489193229435    1.83034588879522   12.68937407491174
C         6.15065571226406    2.34025754327838   14.60386965914075
H         6.10787395615147    2.83768065469655   15.56287975269830
C         7.30025489926840    1.69208460341457   14.17345181713991
H         8.18638688633854    1.68283497306073   14.78732464922142
C         7.27972500330640    1.06618589339079   12.93895186244290
H         8.14959046460061    0.54905892887037   12.56382656019681
C         6.12312413425000    1.13470370717238   12.17257234937888
H         6.06596779595360    0.65037132343967   11.20937948634030
N         3.88185501345269    5.49688079615287   11.13521455650463
N         3.53674763351998    3.44206761935400   11.68367234468124
N         5.04575548933084    2.40505150513302   13.88513810029129
O         6.72105291646367    5.33809846539029    6.95303591451370
H         6.25693863469001    4.51853140162984    7.17118818908084
O         6.47641003403489    7.48310557168455    5.81854365163996
O         4.48622984095224    6.10113397042298    6.24483225389701
S         5.77100893257803    6.57814629407632    6.65847891094132
Cl        6.92126732512583    4.98390589182700   12.74723166814883
Cl        5.68799933140067    2.93958752417122    8.86266306963813
Cl        8.52537580935295    3.29587228935318   10.47992641302145
Au        6.37676398844394    3.84892331106788   10.85309923065099

