42
CSD_code = PEXKUB | q = 0 | S = 0 | Stoichiometry = C17H19Br2N3Ni | MND = 5
Br       13.43237931285624    7.20359938096719    8.26569143209870
Br        9.93291021697577    5.58498288391052    5.92539674950511
Ni       12.10742743707962    6.45903199789586    6.41546026934841
N        13.38443951635731    6.28819514645916    4.68105655336738
C        11.13689659797551   10.43350409647768    5.11248483618641
H        11.72179717461114   10.58143950723811    4.20396781939851
H        11.41906409761761   11.18111734298334    5.85367455557413
H        10.07574182093607   10.52931440464204    4.88285020592744
N        12.69097555225064    4.78669229921874    6.70002286025899
C        13.54825280150338    4.25920709295511    5.80513220751535
C        12.73921022040147    7.40476085813815    2.63838378903456
C        12.75649932974537    2.77792660845725    7.96629707966407
H        12.41830058884447    2.23269632595305    8.83180173232602
N        11.60852019112264    8.07925398778707    6.03900019811461
C        14.82036962502248    9.22151886775577    2.99973500341223
H        15.62531764067832    9.92808703935538    3.13940115862110
C        14.03756712522908    2.96325366389631    5.96560698161319
H        14.72252078513161    2.55432661242968    5.24108478719325
C        11.39938743680866    9.12935314610080    5.62421360696591
C        13.63894894245417    2.21400193745270    7.05503232388708
H        14.00837103085330    1.20979880773221    7.19336096871307
C        13.92214768666157    5.12806264542353    4.68643274202322
C        12.30872232805186    4.06644266347068    7.74838922035426
H        11.61873862719599    4.53784634175149    8.43952903163384
C        14.67645964936893    8.17915709689836    3.90293410220924
C        13.62821842215386    7.27248883313274    3.71056617360964
C        14.87557497486537    4.63930743397174    3.64327777659845
H        15.03323380631288    5.41074912796538    2.89205428415952
H        14.47790137692620    3.74906408393745    3.15763878466601
H        15.83309574620689    4.38421811430034    4.09559232676370
C        11.62342763449754    6.42280600656550    2.46491069344958
H        12.01217147774045    5.42843248202006    2.24317946177245
H        10.96654408084494    6.72386015766409    1.65365642288534
H        11.03467671645769    6.34669275972427    3.37880572242688
C        15.60209193560515    8.02497965286084    5.06907600847803
H        16.19696826439923    7.11581184002560    4.97730627224074
H        15.03885946182533    7.95664829558070    5.99924285593009
H        16.27894613763746    8.87202916708685    5.13679084900113
C        12.91889730868048    8.46040158523499    1.75754078301187
H        12.23825059093734    8.57101438950649    0.92605260450867
C        13.95000642571252    9.36576865346765    1.93414970925592
H        14.07516990346345   10.18445666161146    1.24121905629910

