68
CSD_code = PEYWOH | q = 0 | S = 0 | Stoichiometry = C31H28ClN4OPPdS | MND = 4
Pd        4.39766243441730    2.44967116752256    5.58640526777377
Cl        3.34249173279722    0.69903358846429    6.61651761095835
S         5.42935452044185    4.16594967770141    4.43264959098443
P         5.84529679441097    0.81201964001892    5.13216977557106
O         0.37142320210464    3.08961491813041    9.06855432190925
N         3.00307386107843    3.86722117048665    6.06176961399970
N         3.08933996994358    5.06734807099052    5.45468220123045
N         4.29290762547896    6.50057378606393    4.14416012157695
H         5.08605373743332    6.61806742518043    3.53365794899678
N        -0.92313208765781    4.88982010977846    8.71961960648426
H        -1.47469293507439    4.58270800867670    9.51283459331561
C         4.14210651535968    5.29679619648314    4.72051316048894
C         3.34509148543020    7.58327820328674    4.25289525854789
H         2.88371863695260    7.51644446230736    5.24175857910550
H         2.55596214361421    7.47178993236877    3.49570415932038
C         4.04761054998116    8.92113738063770    4.07816937147148
H         4.82321898019418    9.04212483634825    4.83101235809796
H         3.33238263951379    9.73235380341494    4.18248991290657
H         4.50408505008097    8.98856545637482    3.09227620136167
C         2.03035263576977    3.65302963442508    6.89247480562184
H         2.02763844332847    2.69281536893712    7.40217729211084
C         0.94212469067935    4.52913190391230    7.24525548102959
C         0.59313566610755    5.67132255894674    6.58225937452435
H         1.17078112124686    5.98048427744216    5.72559506035024
C        -0.52523422155762    6.45907837741108    6.96898737037475
C        -0.89790951577294    7.63234148324264    6.29830157934284
H        -0.30912313496309    7.95546794472924    5.45240903280947
C        -1.99199470110216    8.35597328119982    6.70943276198367
H        -2.27394358992933    9.25811517585469    6.18817071463318
C        -2.74456990179676    7.92688214908937    7.80207799756996
H        -3.60347025374353    8.49926105502351    8.11849273063763
C        -2.40172698107944    6.77799948872704    8.48051063298419
H        -2.98372036145601    6.44299359085137    9.32689653221031
C        -1.29290730127676    6.03519455731327    8.07301347224250
C         0.14854496054132    4.07975988419509    8.40155849825724
C         5.10918628185933   -0.38045163248197    3.98015083222484
C         3.87049166807892   -0.04673985298636    3.43800278600228
H         3.37596757639484    0.87831301690160    3.75958347819215
C         3.27416771024662   -0.88199187575896    2.51131183419493
H         2.31041394696080   -0.62846913011818    2.09522607277007
C         3.91519558697175   -2.04603793169042    2.11823756975600
H         3.44593341239224   -2.70383931944364    1.40156141557419
C         5.16350874018068   -2.36251465414247    2.63042760687636
H         5.66838289121701   -3.26062305309603    2.30540566850109
C         5.76952952754079   -1.52690544739127    3.55099204855683
H         6.75884911902455   -1.75218159154071    3.92495456221647
C         6.32976436936481    0.06365908154750    6.71098090008936
C         6.55740679570379   -1.28232491994490    6.95470803312755
H         6.43007644539574   -2.00853024373408    6.16605593963398
C         6.91736099569483   -1.69240902732481    8.22819738902168
H         7.08587714121973   -2.74137711043993    8.42396782022997
C         7.05237333309205   -0.76799481547922    9.24981403016621
H         7.32947890936937   -1.09698264604798   10.24042754452368
C         6.81328314957915    0.57782707798245    9.01089239035469
H         6.90006654343903    1.29412648440300    9.81445885459412
C         6.44817679248250    0.99269003136270    7.74597170722191
H         6.22169073756367    2.04805950421572    7.54141663823061
C         7.44224209524219    1.10885207916536    4.30124083782919
C         8.67391327690489    0.83639467430338    4.88206657553835
H         8.72208808963668    0.42604738566047    5.88135607973377
C         9.83752612175005    1.09275877141571    4.17665699172896
H        10.79539475327007    0.87850393466713    4.62822174299424
C         9.77695264756664    1.62306770292795    2.89932708576037
H        10.68803987116245    1.82274731203567    2.35462633445178
C         8.54824652988249    1.90426691929382    2.32058618228557
H         8.50185366370482    2.32478642980303    1.32680962148872
C         7.38514048388442    1.64974711559235    3.01913205190806
H         6.41678838172644    1.87585716481082    2.58787838343851

