18
CSD_code = PIDNEV | q = 0 | S = 0 | Stoichiometry = C2H8I3N3ORu | MND = 6
Ru       -0.64696688544200    3.12619888099823    0.62400287747124
I        -1.88670901800357    1.19011419767705    2.04522809861470
I         1.75325996496695    1.98331403054787    0.96742698066561
I         0.36031169998548    4.96995589324926   -1.07918458667533
O        -0.50760515433743    4.88212588265055    2.81943869099812
N        -0.94256817149740    1.78893950951042   -1.18000488837105
N        -2.70161679315136    3.71790791100927   -0.13607107112097
N        -0.55204738713363    4.15987910161745    1.92690125946816
C        -2.35388913429926    1.79226921581277   -1.60248616159562
C        -2.89489708297912    3.22121510364540   -1.50602304070461
H        -0.63962134779238    0.82460740927834   -0.99313209362435
H        -0.35163651517064    2.12915965062470   -1.95079919324221
H        -3.39833328047488    3.29566496087077    0.48651554911947
H        -2.83680931821366    4.73144196384791   -0.11412642680064
H        -2.92278952168418    1.13802924622391   -0.93207838617648
H        -2.46990246588870    1.42234551168025   -2.62741304012003
H        -3.95349947887437    3.23591913360533   -1.78887100755317
H        -2.34328011001012    3.87031239715034   -2.19452356035310

