43
CSD_code = PIFZAH | q = 0 | S = 0 | Stoichiometry = C14H23Cl2O2STa | MND = 10
C         2.29128494561970    4.68208933021233   -0.79997068425863
H         1.77264344058402    3.70992894195573   -0.73458495474166
H         3.11224512091823    4.60060803172631   -1.52909366498057
C         1.29912606073557    5.75962934116281   -1.27655467520918
H         0.66349442008994    5.37285043505197   -2.06999515981796
H         1.81964712194422    6.65223635276433   -1.61804160513007
C         0.88339665166825    7.90369340776126    0.53853754484041
H         0.85620968922820    8.54440524823905   -0.34162844920416
H         0.19432186856620    8.27999432905582    1.29421603298732
C         2.30065027138778    7.81832151477584    1.12302438749261
H         3.00319125142918    7.49013182099952    0.33415675618573
H         2.59670888732938    8.82255144851396    1.46417627634606
C         4.63254775582006    3.29989118325591    2.89336876612654
C         4.47153154949522    4.77502820529262    2.88680500888014
C         4.47135598741984    5.14925158493503    4.32183048963135
C         4.54370982014025    4.02170929647973    5.06788351043126
C         4.63990957702345    2.86881304385236    4.17812301618848
C         4.80752762884430    2.49785883792236    1.64211249494719
H         5.86789461000112    2.37589956825150    1.41198074910754
H         4.32517533889674    2.99224571061274    0.80013661753443
H         4.36916651423708    1.50843728257876    1.75092705663733
C         5.38015390066431    5.57465460892592    1.97645714612016
H         5.14285869144958    6.63552498865068    2.03438226069404
H         5.28229933699375    5.24663379925939    0.94332334587738
H         6.41686831735395    5.43424512368462    2.28680309266926
C         4.40280641080122    6.57297997252359    4.77261276229650
H         4.02507612834605    6.63936371340694    5.78927326103619
H         3.73551210319315    7.13853254663862    4.12228189404922
H         5.39147466741732    7.03517075752657    4.74265169503668
C         4.51218296982946    3.88962743816586    6.55208090699600
H         3.57387636829829    3.42895145136856    6.86234845787114
H         4.59490888363265    4.85963769930452    7.03361460001725
H         5.32821528016170    3.25645392730420    6.89745381269084
C         4.73055271721029    1.46849956131163    4.68029173659434
H         5.66677274139961    1.31518939180972    5.21789429575376
H         4.68329879077909    0.75704192743607    3.86086428854749
H         3.91214027100333    1.26444782318486    5.36939105002131
Ta        2.20922170520913    5.07318886672295    2.17980802787405
Cl        1.41451137030150    2.95405853439933    1.91784089447558
Cl        1.28718667619408    5.14763960685289    4.22242986319465
S         0.20177190117443    6.26942408007368    0.09632337878241
O         2.75850147153554    4.99175828147944    0.44828780938906
O         2.34787078584716    6.91270098455792    2.14817590616199

