57
CSD_code = PIJNIH | q = 0 | S = 0 | Stoichiometry = C21H32Cl2SiTi | MND = 12
C         6.98687531228625    1.57055546251225    5.71378167980725
H         6.08836490606552    0.96159758407457    5.81267484357280
H         6.88857910489806    2.38551479986142    6.43274680829856
C         7.04876302432718    2.14942663880382    4.33316783930320
C         6.28045997433321    1.76086108716056    3.20518149372359
C         6.47653267956247    2.73852288320821    2.18322390513077
C         7.39872737713791    3.69717597822229    2.66218485179536
C         7.79910784399079    3.30568566813411    3.96972600997605
C         5.22826589918178    0.69350594391105    3.13077460343623
H         4.24598754393717    1.15453818532695    3.00643682239899
H         5.20588006893006    0.08884619862463    4.03471917919938
H         5.40243250744418    0.03952076978477    2.27501941762100
C         5.68039413204879    2.87090601263570    0.92175471172257
H         4.88567241797033    3.60729846748167    1.06802972051638
H         5.22956050025697    1.92220978242361    0.64021239266359
H         6.31039315106980    3.20933480628464    0.09873500930070
C         7.70488355977534    5.00928200667916    2.00934798478006
H         7.72415883182400    4.91299844749314    0.92498827161734
H         8.66694046924215    5.39795657125393    2.33643468935387
H         6.92915904600459    5.73280007788424    2.27487011214734
C         8.59423952146131    4.18858027244737    4.88497778068556
H         8.80281949479984    3.69190143674575    5.82832717889231
H         8.02859828730246    5.09930572637314    5.09775221267374
H         9.53588889908799    4.48395885098138    4.42145994240719
C         9.30481966175841    0.43943301702272    4.31510866605882
C        10.46769240206340    1.08974736710294    3.79418746774653
C        10.82297315737939    0.46842893877655    2.57162767437520
C         9.87073842798370   -0.53211756529258    2.29107781444271
C         8.90712110991707   -0.52777820625179    3.33038656105565
C        11.32955964667626    2.11167570323377    4.47167517228606
H        12.28883038310534    1.66544397973141    4.74306500443966
H        10.86227194845426    2.49108367590422    5.37301537303877
H        11.52959657508386    2.94640239444268    3.79679221848334
C        12.04967022633980    0.73549194078976    1.75836258154710
H        12.77951762120729   -0.06161874784572    1.91902132219432
H        12.50371872744800    1.68438264005503    2.03256451084103
H        11.80983422960030    0.76475844674616    0.69532059327327
C         9.96000993207438   -1.50525173691099    1.15877160510040
H        10.66986669456340   -2.29623376420065    1.41333405335215
H        10.31060283427415   -1.01400750444309    0.25185331553318
H         8.99485126559828   -1.96087601886997    0.95105881283331
C         7.81407366966511   -1.54656467877046    3.44748925632212
H         7.30973018579999   -1.67149922625122    2.48799911947198
H         7.08028768412398   -1.25501061282529    4.19242705779376
H         8.23129616214477   -2.51424399994202    3.73527940670292
C         9.66696853456727    1.30749629049341    7.40439902140335
H        10.66131668128938    0.87323426288428    7.40211138188360
H         9.22703026803245    1.10397474602398    8.37591240079009
H         9.77516016592146    2.38380441922856    7.32455989443309
C         8.13697356414213   -1.20900808537905    6.74393268915493
H         8.85362441654387   -1.95504119680834    6.41651551924526
H         7.15005933934755   -1.55278679567599    6.45342921136038
H         8.16371351240125   -1.18871421912709    7.82852444337123
Cl        9.86380598081027    2.95783411876638    1.36486702387579
Cl        7.77198812052615    0.64002637606787    0.65439731534654
Si        8.57282358339248    0.52047693514607    6.04639095363998
Ti        8.52528873482590    1.60217344787449    2.53771509758019

