45
CSD_code = PIMDUM | q = 1 | S = 0 | Stoichiometry = C12H24Cl2O4S2Y(1+) | MND = 8
Y         3.32428134856671    9.47740376035122    4.84613797071391
Cl        5.54847378815381   10.36444966176231    5.29139731169639
Cl        2.17225421091535    9.52093191487276    6.99107248213310
S         4.17125694783500    7.03299079456776    6.14881356235824
S         2.96115279412392   12.34287672952165    4.73269386879690
O         4.89403443281801    7.90507177596885    3.33129817791063
O         3.44259159876611   10.19067092474627    2.44714175035368
O         0.84446275112062   10.23821413277941    4.15507124090412
O         1.88631727802561    7.60026789904770    3.99935195342277
C         5.39103551716867    6.24984875952643    5.02131434548622
H         6.19441693368442    5.85754614264365    5.64341418430296
H         4.89569523786405    5.42789536618057    4.50924122796544
C         5.95953894692808    7.26374836573364    4.04188473968170
H         6.54446072962865    8.02216050716482    4.57887028831237
H         6.61216314856204    6.74692044793357    3.32507542488318
C         5.40248464344921    8.76697180917413    2.31525601565985
H         6.01626398021016    8.18817222472101    1.61256754748283
H         6.01286576558330    9.55559131759164    2.77715023463338
C         4.22202722968477    9.37961342041574    1.56741127176623
H         4.59971296904438    9.96477236337090    0.72536020786076
H         3.57674098795397    8.57605664277118    1.18862142426220
C         3.16800971518872   11.53042643979471    2.03436609815632
H         2.08131395255647   11.61687052841635    1.90487027746554
H         3.64627205260151   11.74117702317273    1.07273640920902
C         3.66907374224442   12.54630812700619    3.05573138867585
H         3.45623276893205   13.56086956705060    2.71904648732969
H         4.74295608417739   12.43300366490788    3.22001088684115
C         1.16886904586377   12.61547132842201    4.43856102672494
H         0.87011703673765   13.46844453582685    5.04663184019674
H         1.03267698039087   12.85462008859696    3.38613338313846
C         0.36031409375444   11.39501625072208    4.84689545586212
H         0.44254277076993   11.23096671147923    5.92971323897237
H        -0.69476391971452   11.55659685408941    4.58648338396773
C         0.02664312800832    9.10144432928913    4.42504458897809
H        -1.00965621211142    9.31275635200411    4.13020303840896
H         0.06580228744588    8.87019974093944    5.49880610941509
C         0.55165026573767    7.92521394778834    3.60744114468630
H        -0.11693694989961    7.07170280422327    3.74471819916549
H         0.57075541971442    8.20256221609398    2.54500124969845
C         2.15782123079794    6.23825796540466    4.33484567737265
H         2.92372249669524    5.87912406179257    3.63477718153765
H         1.25996536359529    5.62486667927259    4.20646745719868
C         2.64125014469735    6.09768187444487    5.77481008874101
H         2.81825592781130    5.04972767654244    6.01636869886604
H         1.91138133391739    6.51491627187407    6.47199145880569

