66
CSD_code = PIPMUW | q = 0 | S = 0 | Stoichiometry = C24H37ClNP2Rh | MND = 4
Rh       -0.48360566979116    1.65857186190608    2.79883245158122
Cl        0.37229199615078    3.69493941630411    3.41731131874984
P        -1.46953490589640    1.19717295492174    4.78582183685373
P        -1.10651793609237   -0.23779034764645    1.82927001282837
N         0.35580565797447    1.99324606071982    1.03899040354210
C        -2.32777579483786   -0.46124781385016    4.86871998974959
C        -3.06875316868102   -0.94087182171248    3.61693662014769
C        -2.12666718205115   -1.57200118459077    2.59654766090796
C        -2.12432366348678    0.22826343351297    0.34411337669332
C        -1.81320209986862    1.69425050534885    0.01147821076506
C        -0.32974386828915    1.89057965960604   -0.10880376588546
C         0.30519720395872    1.92641697377449   -1.33846474873348
C         1.68220857385555    2.07945487637901   -1.39643000506162
C         2.37726815996461    2.20833180620293   -0.20489280032728
C         1.67702181198849    2.16542939840630    0.98566764589246
C         0.21857809210125   -1.25241946360451    1.07782508740553
C        -0.01006345820527   -2.22983635702827    0.11565195555518
C         1.04876409104637   -2.94593318994108   -0.41170006856866
C         2.34237898984666   -2.69940447725463    0.01980461542283
C         2.57516457575121   -1.74603582807395    0.99653309905190
C         1.51599914000903   -1.03056797057539    1.52402773871940
C        -0.17193725168839    0.93020657561941    6.14649600955037
C         0.33112578520483    2.28328009775529    6.64696647525665
C        -0.58880557913147    0.06798945998129    7.33918633550991
C         0.97933279983663    0.24626017766016    5.39883976413588
C        -2.84542449368909    2.36418227559483    5.39426785931628
C        -3.37607031635292    2.10014119157161    6.80097874739833
C        -3.98010631860783    2.20000189604077    4.37704545135654
C        -2.36537732961807    3.81159414466969    5.30506005355128
H        -3.01807862126245   -0.44118976036155    5.71385658145780
H        -1.55548675484309   -1.19837817901544    5.09589383592243
H        -3.58949892961962   -0.11237989736996    3.13434487546763
H        -3.82086585558687   -1.67826427384518    3.91688611350240
H        -1.45728312578156   -2.28849465463176    3.08146996791487
H        -2.68817311018532   -2.10091089119183    1.82017974206018
H        -3.18320982156234    0.12438187639049    0.59633221786702
H        -1.89952383361744   -0.41029018339733   -0.51327443308569
H        -2.17039959553930    2.32353833315046    0.84008758681944
H        -2.31562901279849    1.99469104131417   -0.91022611362467
H        -0.27799823207731    1.83856420206250   -2.24290712298081
H         2.19378624602551    2.10625417614323   -2.34630765285874
H         3.44673875304200    2.34644115686952   -0.19544829079320
H         2.18831718690729    2.29508113258512    1.93201451340739
H        -1.01642759932087   -2.43924557846796   -0.22045546390535
H         0.86567633619134   -3.70056388893986   -1.16271989596024
H         3.16607064411077   -3.25647243195952   -0.40185914791874
H         3.58080722237692   -1.56026835205502    1.34426580946630
H         1.67956734492316   -0.28623812250379    2.29503712068801
H        -0.37464246118525    2.73827513416117    7.33759332512978
H         0.49735533669723    2.95556161647618    5.80681881594626
H         1.27636896195332    2.15493160730628    7.17435114886929
H        -1.48563427998494    0.44495701534586    7.82018176119917
H         0.21514352096987    0.08168920935537    8.07524462430587
H        -0.75663107136959   -0.96869123815459    7.05869874329023
H         0.66698374905405   -0.70571833394750    4.96739971065866
H         1.81683656754504    0.06029598339904    6.06998034860844
H         1.31874437693742    0.90398015191360    4.59043228472131
H        -3.71061256525259    1.07334995788605    6.93457690318844
H        -4.23265951049775    2.75005996488498    6.98117521159288
H        -2.62590543837146    2.32825620207290    7.55321797443525
H        -4.51904518510895    1.26673772784195    4.52241733219334
H        -3.56961179960753    2.23297192173143    3.36427300504068
H        -4.69352290217001    3.01713562866190    4.47812115537742
H        -1.60409918492113    4.03548961068944    6.04419796764007
H        -3.20392137983965    4.48916822252703    5.46629029374678
H        -1.94556381760118    4.01018960134100    4.32177781922309

