29
CSD_code = PIQXAQ | q = 0 | S = 0 | Stoichiometry = C11H10BrCuN4O2 | MND = 3
Br        3.77739873610465    6.50467697618575   13.65552686672767
Cu        5.14430935580360    6.64865918977559   11.91275378573165
N         4.15610074348062    6.34628677660649    9.86706195061039
O         0.32529810877322    5.68434418744041    8.82185272059091
O         0.75314528384878    6.08425057924235    6.74416563854031
N         7.96030673807833    7.06938647201903   10.75775973607367
C         8.72133250997258    7.19332876661127   11.97905303650422
H         8.00280562336365    7.19439462034686   12.80613509538558
H         9.26350061509065    8.14391428464591   11.97450741163112
N         6.34791536896584    6.79470913266579    9.35691071472276
N         1.07464338472811    5.97349334367888    7.91207160152249
C         6.63560870081737    6.88088341208468   10.69387729780261
C         9.67889541090074    6.04631275614568   12.12913291031751
H         9.22367605159874    5.06609677439429   12.09759498537864
C        10.98025734882792    6.19066472217907   12.28632861329309
H        11.44448748447913    7.16272180296059   12.32407226118809
H        11.63467160446173    5.34480382230113   12.40203325005444
C         8.50838821093608    7.10107258479422    9.50178511906146
H         9.55804583642739    7.23731739964541    9.34177180940517
C         7.50069803926723    6.93463737721982    8.61632571895181
H         7.52612694842561    6.89237989084351    7.54831371129480
C         5.05059510494669    6.60365661906088    8.90495464408758
C         2.89442654260194    6.15638367409431    9.55577221029088
H         2.20688901875360    5.95898090858355   10.36797837347512
C         2.45410247446220    6.20208280754376    8.23454618393984
C         3.37401584325746    6.47714768380669    7.21888092187168
H         3.03366493651665    6.52104554116703    6.19544182637695
C         4.69301673979151    6.68668662496633    7.55634410004760
H         5.42277723531847    6.91268126899273    6.79714750512174

