65
CSD_code = PIWYEB | q = 0 | S = 0 | Stoichiometry = C31H26Br2N2O2PRe | MND = 6
Re        3.37177131429758    2.10644746178250    4.75873316483996
N         4.55882208189729    3.58299384029937    3.72686538457256
N         3.26447092004110    3.04233361557681    6.24074529816033
O         3.43475620340803    1.45899191633286    2.83404190343254
O         4.04977690680619    1.82650593956175    0.72275490701804
P         1.24204444963119    2.92885199577751    3.82328780419925
Br        5.55468093385831    0.99640203126940    5.27575614522155
Br        2.14071672649716    0.14364517789747    5.60987706187397
C         0.28097866837196    3.92228064171471    5.00412359642204
C         0.12213742186129    3.39771824195157    6.28546981048927
H         0.54914246850787    2.43306059649440    6.52550485929387
C        -0.57704011177025    4.10914220578826    7.24203331085000
H        -0.69351287265682    3.70009492639175    8.23389466911148
C        -1.12097145309510    5.34456901372293    6.92767145535367
H        -1.66130088857806    5.90439814964501    7.67632477467122
C        -0.97876179430375    5.86040761442879    5.65002466479944
H        -1.41314199996514    6.81738526620496    5.40010820537847
C        -0.28229847272002    5.15303342353070    4.68558416190686
H        -0.18177223471034    5.55529711034112    3.68692595028009
C         0.04633766344462    1.72090032032264    3.18715815450094
C        -1.31909371613555    1.95862878907041    3.32444647709073
H        -1.66748371257364    2.84897616485437    3.82841472159805
C        -2.22797486136599    1.04806402361247    2.81885373058339
H        -3.28617262865925    1.23456381146783    2.92787967236495
C        -1.78625523785042   -0.10019207620399    2.18161138883678
H        -2.50118530088751   -0.81075420394140    1.79463561110557
C        -0.42912314905902   -0.33985595242797    2.04677182456748
H        -0.08069736828813   -1.23619324202421    1.55678909976345
C         0.48787028651797    0.56556471399870    2.54721456296432
H         1.54464547970610    0.36676130248154    2.44134325515836
C         1.60263655428762    4.02699413387050    2.42770695936194
C         1.40634060392730    3.62480935105689    1.11157520442333
H         0.91936840536069    2.68305531974082    0.90085689824026
C         1.85012373191399    4.42577579235192    0.07362663926609
H         1.70788398465272    4.10286089885052   -0.94606064950205
C         2.48940238404040    5.62408919999933    0.34159744298645
H         2.84357644649672    6.24063982930873   -0.47078588708998
C         2.68221469613142    6.03297710032764    1.65317166981211
H         3.18256959784655    6.96728623929114    1.86360485906370
C         2.24901387851407    5.23498488365516    2.69303429067571
H         2.41523239227468    5.53273570251202    3.72167284034573
C         4.03434408858824    2.09258676081032    1.90619572719356
C         4.76166127246027    3.32280017658347    2.43568856724142
C         5.56843199203451    4.10615275245293    1.62755921214710
H         5.67895572425237    3.82724402065045    0.59175783688791
C         6.20223764172766    5.19854848552372    2.19013335139012
H         6.84748994924333    5.82853240606085    1.59760585767571
C         5.99880490207273    5.45897572778326    3.53984902407711
H         6.48097930712380    6.29193726317218    4.02583685829065
C         5.17249759161917    4.62915822968442    4.27238158735560
H         4.99818947090088    4.78908824175888    5.32833813151969
C         3.16370362795138    3.71592199871041    7.38409453312653
C         3.48403353313347    3.06571555304256    8.59296024996039
H         3.81937263344726    2.04099598029507    8.54467548862409
C         3.36175214814025    3.73726649504253    9.78696975314455
H         3.61050332873070    3.22832462044105   10.70633533532724
C         2.92173215896678    5.05848271923397    9.83191227608168
C         2.60540727303340    5.69975731263280    8.63405130154985
H         2.26097751044234    6.72362423736944    8.65732445804719
C         2.72374002617904    5.05340193681417    7.42665337964988
H         2.47049708973111    5.54956158059960    6.50130576053966
C         2.77045744590037    5.77811238188947   11.13309959744996
H         1.71430247789545    5.86331558238429   11.39000742673896
H         3.17602177536387    6.78572174336680   11.06562254835498
H         3.27477863324199    5.24584252285422   11.93479584362545

