59
CSD_code = POKNAF | q = 0 | S = 0 | Stoichiometry = C24H20Cl2FeN12 | MND = 6
Fe       -0.00255371656874    5.53051488771376   -0.00099186261029
Cl       -1.30293923286606    7.16061221531191   -0.61659970771758
N         0.00057378348026    6.24419238940669    1.82115890974622
C        -0.78591573006165    5.87320016544094    2.82620864361391
H        -1.50196802612444    5.09928565966252    2.59460100823685
C        -0.70777786456680    6.43299548369650    4.08838350525594
H        -1.37363405322743    6.09459332735112    4.86614586731771
C         0.23682106594665    7.42132933825678    4.34086780047892
H         0.32788527969234    7.86559526662810    5.32016154624164
C         1.06228584271035    7.82122220454475    3.30784040497663
H         1.82815317391791    8.56579228286870    3.45425887644152
C         0.91011019218764    7.21909267532694    2.06171737361393
C         1.69074097402958    7.50468259265841    0.89633421807292
N         1.50972466833622    6.75400206008383   -0.18998806211059
N         2.32902718526331    7.17046860949004   -1.13945306585004
C         3.01148875067777    8.19730610818189   -0.66833480976072
N         2.62978390301644    8.44338144022442    0.62257166519872
N         3.11859537776809    9.41554826444491    1.47335034194040
H         3.87038280729866    9.89822562651639    0.96083215527088
H         2.38155656068726   10.07416474626116    1.71942685021776
C         4.00185716025462    8.95164130013401   -1.39728276799825
C         4.28351426338372    8.63542603651749   -2.73042572332739
H         3.75336870481684    7.82239947962419   -3.19694904105343
C         5.23436576323003    9.38134728705015   -3.39609198750922
H         5.47865526282589    9.16512212119003   -4.42561305851034
C         5.87479390332504   10.41627672898660   -2.72297486534817
H         6.62475142339464   11.01947298675450   -3.20897598977391
C         5.52515931894329   10.65573518132983   -1.40479249227278
H         5.99019403569470   11.44856637526994   -0.83334851181723
N         4.61787336576179    9.95026898966617   -0.75363600561751
Cl        1.29783176897967    3.90013518118475    0.61443563536982
N        -0.00587084731857    4.81686667863665   -1.82336368295085
C         0.77912740945939    5.18919121658109   -2.82907953860424
H         1.49430711892207    5.96405219620517   -2.59793831259411
C         0.70064580606461    4.62947756749466   -4.09127072356079
H         1.36520778894235    4.96903800255684   -4.86963668625532
C        -0.24267888654995    3.63973715069162   -4.34300012317917
H        -0.33402396040696    3.19552926670713   -5.32229219190121
C        -1.06649399243799    3.23836027571921   -3.30922672568672
H        -1.83130116672690    2.49255460313717   -3.45494337258103
C        -0.91410283128458    3.84060188923605   -2.06319343857410
C        -1.69357678682148    3.55384228810152   -0.89728556876085
N        -1.51439772203329    4.30583644086024    0.18841499902450
N        -2.33230291523425    3.88777942702884    1.13837607837222
C        -3.01180582983560    2.85850483495387    0.66829109043989
N        -2.62976884289977    2.61258554194598   -0.62254810764163
N        -3.11565818363608    1.63805318178728   -1.47233475598667
H        -3.86500303696714    1.15267084630453   -0.95873696202559
H        -2.37630093303437    0.98219026630340   -1.71876854919529
C        -3.99920788644459    2.10137814123728    1.39836776077538
C        -4.28206437513313    2.41849861125469    2.73103563692537
H        -3.75546331357551    3.23465374004680    3.19610348212122
C        -5.22938838595306    1.66936127969607    3.39811429555699
H        -5.47437102966573    1.88605863345253    4.42737297528189
C        -5.86521715691258    0.63043207775065    2.72680786760278
H        -6.61215669415840    0.02447053063776    3.21401890705637
C        -5.51499831197610    0.39063823537608    1.40884710954680
H        -5.97676301344230   -0.40503000247721    0.83869364727401
N        -4.61107793314093    1.09917006699535    0.75633803878184

