43
CSD_code = PUCFEY | q = 0 | S = 0 | Stoichiometry = C16H20Cl2O2PtS2 | MND = 4
Pt        6.15752742087949    0.27729479774952    1.64205177704443
Cl        7.87822985479787   -0.13576679249110    0.22474761605184
Cl        5.04628980447397   -1.55242843424889    0.91487398318039
S         4.43902591162870    0.71697039102574    3.10357125083621
S         7.29983214123788    2.07871531907385    2.49459656829926
O         3.71466900878727    1.96545474794246    3.04076939076826
O         6.49108558750208    3.06711210548479    3.18371928936701
C         3.20353006627314   -0.59612370573818    3.38794281700637
C         5.30307963730304    0.60005555519657    4.67218493882008
C         5.15897244396227    1.55647813878922    5.65734997397744
C         5.90962034066874    1.44837331380748    6.81452881314533
C         6.79940018185039    0.39398151683759    6.99197889211182
C         6.93332493250096   -0.55519647328959    5.98268708283293
C         6.19609895177876   -0.44956130420221    4.81883833992365
C         7.59011466576020    0.26969638270118    8.25679448595377
C         8.41558678276491    2.96796570082830    1.36067910903009
C         8.52402489502475    1.51089147064188    3.68607097905239
C         9.21519594257363    0.33203168019071    3.46568318049299
C        10.12271663418574   -0.10104665468748    4.41406898527413
C        10.34132770622297    0.62840763586635    5.57994437965403
C         9.63079653895386    1.80631924685552    5.77999244068488
C         8.71918409681441    2.24739471528465    4.83865749858825
C        11.33829416099943    0.15224816107917    6.59061980643418
H         3.72327358703504   -1.53167346054847    3.55123839928874
H         2.58588948647802   -0.66356049432196    2.49935775982418
H         2.61027808470038   -0.30517415249232    4.24721108589403
H         4.47986310987240    2.37761111705565    5.48979570552820
H         5.80803448110349    2.19482858383064    7.58847403903233
H         7.62776560727906   -1.37242923973925    6.10608742774137
H         6.30670047819652   -1.18046445601397    4.02263994625517
H         7.79221294837291    1.24753207531180    8.68634051495970
H         8.53074647766446   -0.24334192688161    8.07540847007238
H         7.02581219072627   -0.30802202901558    8.98942704502281
H         9.02641099991554    2.22601918799779    0.85887828324902
H         9.01213350385369    3.66239485743610    1.94070914828426
H         7.79678240167218    3.49986285153893    0.64628967429639
H         9.04211411315943   -0.23436840427990    2.56072397998785
H        10.66788001202260   -1.01870695222015    4.25086787567775
H         9.78964785446462    2.38139610488903    6.68019838996198
H         8.14369008717996    3.14859645263126    4.98461482151606
H        11.27500111808277   -0.92623058911795    6.71869436431799
H        11.18428428858068    0.63560376196695    7.55197075596307
H        12.34775146270165    0.38525919727779    6.25212071461422

