54
CSD_code = PUMFOS | q = 0 | S = 0 | Stoichiometry = C15H32Cl2FeO2P2 | MND = 6
Fe        5.21061035465547    3.75721134290598    8.22158870169299
P         5.27283448511925    5.26438225782308    9.86485408234145
P         4.90355659705111    2.12043569547186    6.75787038262749
Cl        4.54606506667768    2.39150401945903    9.77672611558197
Cl        3.11294120460454    6.06363801619131    7.43710940971257
C         5.67133255373406    4.84362700977133    6.94927799269786
O         6.00518779455145    5.51378447455309    6.08311690852068
C         6.87735215391058    3.30026148939723    8.55189703570665
O         7.97034035063049    3.03412357908258    8.77240167901350
C         3.26284376311675    4.33645138933900    7.90272156125725
C         3.76486608949211    5.85534568359447   10.75269893940965
C         3.07147479792248    4.80828435858573   11.61667076410203
C         5.99806916804126    6.88874726081548    9.36913466670709
C         7.46283771548250    6.78022635473870    8.96532100515911
C         6.35389063278265    4.73177663406238   11.26704842960701
C         6.52206273533334    5.72063703035453   12.41496771245207
C         6.45044682903185    1.18612645477188    6.36707347893355
C         7.47588481424688    2.01468636994288    5.60314320436810
C         4.32211633478254    2.62557128016926    5.07363768432475
C         4.09034518588470    1.50428441392382    4.06806793709857
C         3.83821312920677    0.68215211829915    7.19716648051014
C         2.37901835889872    1.02441148970919    7.46087013637637
H         2.63461214782176    4.24232329671076    8.79238552114886
H         2.72461637586766    3.81635124222939    7.10525857206015
H         3.07737596814120    6.25097501275628   10.00213174794189
H         4.09400752752941    6.69755237766454   11.37184282493764
H         2.16264556681444    5.22991771640625   12.04374134541979
H         2.80549951255058    3.92854921149955   11.03746908383036
H         3.71286824256950    4.48125313709688   12.43160370167940
H         5.87741064446330    7.60432907143249   10.18744205063108
H         5.40035747545230    7.24368688172802    8.52491902501192
H         7.79678199804827    7.70775910199668    8.50414689324518
H         8.09637722939886    6.58225060493348    9.82724441355164
H         7.60401688872586    5.97382810704703    8.24673599205338
H         7.33233095024742    4.50062569339597   10.83625359855105
H         5.93251274660761    3.79031486256746   11.63168985051135
H         7.22486479116788    5.31083623431645   13.13869376969243
H         6.91729233276859    6.67288271441398   12.06824923918699
H         5.58306946866927    5.90128141472461   12.93090209738324
H         6.19651129473149    0.28020976760972    5.80879056441734
H         6.85985951147235    0.87307977543070    7.33334192828035
H         8.44219644689582    1.51408127457279    5.60285386763471
H         7.17025592117333    2.16108113299367    4.56966932231293
H         7.60037665560676    2.99442220905980    6.06304788307196
H         5.07896092288527    3.32074941717838    4.69746824701369
H         3.40326596997437    3.20311962728068    5.20031053255661
H         3.83884822259988    1.93465133323860    3.10017665505139
H         4.97891302478406    0.89087389075157    3.94024906403813
H         3.26578711888094    0.86458558639173    4.37203300903748
H         4.28051415630751    0.25113511737223    8.10054223079271
H         3.92753752753883   -0.04598390800965    6.38415861800972
H         1.82189657361800    0.11533049989899    7.67992120619842
H         2.30214595722528    1.68449275396452    8.32049369350396
H         1.92040071430588    1.50708611841005    6.59966914305896

