49
CSD_code = PUMGIO | q = 0 | S = 0 | Stoichiometry = C19H23ClN4OPt | MND = 4
Pt        0.23028378510595    2.85168479199484    4.32175066395934
Cl       -0.39977651647469    4.05242539540947    2.58118246670064
O         0.70890666566225    0.87184629166982    7.85813059340450
N         0.72100318104145    1.78979434008198    5.87186368641457
N         1.90103791393601    1.16986738262458    6.04563040051444
N        -2.02311568197096    2.24369828637342    4.96962985200188
N         1.57879140450659   -1.30162646682400    9.39916849017863
C         2.18810117591836    3.17654353582891    3.87894402711036
H         2.67245252075066    3.63456549342709    4.74483612293866
H         2.30578167583014    3.82677509499604    3.01387767889095
H         2.65515963824043    2.21040332991234    3.67832051774543
C         0.00111030892249    1.60097914819744    6.96346814169626
C         1.88036762162093    0.62669052768200    7.22739557831572
C        -1.29454280327277    2.12541923207073    7.30949530773770
C        -2.24350979645963    2.52700449009978    6.34129255029840
C        -2.96091961066646    2.87970243315819    4.05020690014119
H        -3.97841193428906    2.48448314485292    4.16405438100128
H        -2.62506897074613    2.69135020588500    3.03173974288413
H        -2.95749664750998    3.95695623161289    4.20163953880098
C        -1.98850428898957    0.80590719092628    4.68160347693399
H        -1.40942955463828    0.26425691971364    5.42697811471967
H        -1.53792186756765    0.64526191838793    3.69928082630246
H        -3.00576356868270    0.39156084397174    4.67433013566758
C        -1.56616404492397    2.29513435735438    8.67047535625461
H        -0.83152517550386    1.96021760490300    9.38711593701218
C        -2.72577488803642    2.90817829839917    9.09176701791781
H        -2.91942815877669    3.03964568585808   10.14477376778339
C        -3.62305538628653    3.37530658801006    8.14551942481455
H        -4.52396920327708    3.88220757215751    8.45632900797350
C        -3.38796834684978    3.17839944144523    6.79640574542293
H        -4.12456872165032    3.53513043973811    6.09670318882884
C         2.98441633933447   -0.05042800731835    7.86372920716324
C         4.25979063397476    0.26168764991496    7.38460258587637
H         4.32816165255179    0.89234130843823    6.51271828978168
C         5.38728016223857   -0.19235697840691    8.03096251000651
H         6.36762921572002    0.05775410920789    7.65828355258729
C         5.24550364736210   -0.95348810372295    9.18404649061988
H         6.12120715279702   -1.29570450369098    9.71551067587203
C         3.99550934288007   -1.30471863599394    9.64693547000821
H         3.92069148339086   -1.93034914498260   10.52166510586807
C         2.83067387002915   -0.90273470584689    8.98011973245081
C         1.40277218428293   -1.82983341468241   10.72988483575872
H         1.70504362262078   -2.88193961684146   10.81663576070745
H         0.34485042197481   -1.75718675182338   10.98501173951295
H         1.96842062559795   -1.23313182197758   11.44264029916203
C         0.63503623406396   -1.84106247439206    8.44580642939149
H         0.99677787233094   -1.71037350518459    7.42811238114429
H        -0.33762092118379   -1.35167671140998    8.54795479287402
H         0.50007573507969   -2.91506844123805    8.61927150084734

