53
CSD_code = QAGROG | q = 0 | S = 0 | Stoichiometry = C19H28ClN3SiTi | MND = 9
Ti        4.38534975719737    0.21929106916182   10.18737991770501
Cl        2.85872476441178   -1.08313710731013    9.14103143079838
Si        5.95266748653377   -2.22703975986153    8.07979562871713
N         3.30057662729917    1.65384906208488    9.78671908102682
N         5.85309917535133    1.38876374992120    9.47070234144346
N         5.73579685080269   -0.72247173214082    8.92576546854650
C         4.45890420355750    0.86538406730685   12.43642065526565
C         5.75182995069261    0.39449847840490   12.13721343816622
C         5.65756177622906   -0.97391390689461   11.81422419390724
C         4.30823374357403   -1.35455582304826   11.91358830982696
C         3.55749862069850   -0.21647006155157   12.28778815927859
C         2.40463503171700    2.48233807212428   10.55029832375530
C         3.48324492080993    2.12311399116264    8.43583406545611
C         4.61052079335694    3.17916980690649    8.30431864607592
C         5.85099644614558    2.79344534051359    9.14933627208507
C         6.16174128849417    0.46814864287926    8.57574394482789
C         6.90880692474355    0.76761327115155    7.32698386640030
C         6.25294883880802    0.81212986937444    6.10232023815356
C         6.96102853691887    1.09200060822133    4.94663097872881
C         8.32387007821823    1.33101469456004    5.00568121748090
C         8.97934329539293    1.29576801309089    6.22526031357184
C         8.27537956439167    1.02001576480143    7.38413660078012
C         4.94455499435099   -2.34106671959456    6.45608882856719
C         7.81195144614844   -2.46026670114769    7.67869158987372
C         5.38596499713414   -3.60776572154029    9.26514315634933
H         4.22418793781535    1.84469928609078   12.83357891547055
H         6.66934712696560    0.95964093022261   12.24009280540913
H         6.49367039225559   -1.63398782146343   11.62769919597801
H         3.91698138002244   -2.35905215031165   11.81641046160669
H         2.50632612056014   -0.22295783051967   12.55836212586298
H         2.86810488078636    3.44652342216123   10.81845222510226
H         1.49502672419455    2.70052430674751    9.97011794768193
H         2.10159454392875    1.97460850829136   11.46687652040770
H         2.54945991840387    2.56413828168054    8.04799577835498
H         3.72472304772018    1.25557269188214    7.79648542084649
H         4.24035334844424    4.15032375408374    8.63605657159626
H         4.88384509777101    3.26165595375074    7.25031372283525
H         5.83162972939597    3.33574083503922   10.10122629368688
H         6.76649481140521    3.07400816465898    8.60864268975629
H         5.18863374357042    0.62699684872598    6.06153061351988
H         6.44750078976440    1.12345185915682    3.99693890990175
H         8.87470610116748    1.54584515535909    4.10211421935489
H        10.04185173819203    1.48346839919435    6.27398718110168
H         8.78117290679141    0.98751888749964    8.33849419755299
H         3.94669304240364   -1.93486316823365    6.59884330978392
H         5.41990045827845   -1.81177487864238    5.63506030586702
H         4.83360761263571   -3.37793497835322    6.15542129634207
H         8.13119863584182   -1.82152851979642    6.86145434087191
H         8.43936358403205   -2.23680150763694    8.53605728563645
H         8.00552010739091   -3.48677688260483    7.38818659674278
H         5.95408072175068   -3.62656530661471   10.19021598339762
H         4.33629556833254   -3.48310854315808    9.51164787942435
H         5.50119981720355   -4.57712266578275    8.79114053911941

