68
CSD_code = QAJGIS | q = 0 | S = 0 | Stoichiometry = C25H36Cl2N2O2Zr | MND = 6
C         8.59573648075400    2.04288872093284    3.54628606584720
C         7.59367903269735    1.06053060051919    3.40228050496681
H         6.59422331978630    1.31520127962627    3.75346915791984
C         7.88487177502167   -0.19961759139311    2.92184859114152
H         7.09843017834848   -0.93709356493590    2.82483037657229
C         9.18724959238732   -0.53760840904456    2.58686847668960
H         9.41692970073466   -1.52179028371692    2.20826993209911
C        10.19298360987047    0.39944545237023    2.76220597316968
H        11.21354044477364    0.14093704766387    2.51664006038800
C         9.91565950980053    1.66335178877735    3.24107803945442
H        10.72403525370418    2.37184579412542    3.35210963579814
C         9.06047992483522    3.99818152812983    4.90255451511261
H        10.12106210323645    3.91971475464944    4.61312332936719
C         8.89920627119205    3.36161698037537    6.29451039204237
H         7.84947690856283    3.39560598467597    6.58488097479161
H         9.49309249331867    3.89084480137481    7.03612410492544
H         9.21864721182109    2.32135044718631    6.26202116631042
C         8.68873011444744    5.48670648661174    4.97612357626466
H         9.41910955812998    5.98264379917942    5.62103766564442
H         7.69966221106717    5.58653629751595    5.44085642410449
C         8.65302695073304    6.20775727689462    3.61548197935545
H         8.76481603040504    7.28654961186921    3.81403092840810
C         9.81042474698522    5.78637968427952    2.68781219495890
H         9.63853602704066    4.76764238091307    2.32815271749528
H        10.76820249209378    5.84455940256798    3.20103100178817
H         9.83429238977435    6.45097005003825    1.82490906359125
C         6.95516944168665    6.97812257840409    2.09722828451251
C         6.83820060098813    8.30929337788436    2.53806963448190
H         7.08673611047068    8.55617946147753    3.56161844223925
C         6.38419740940073    9.30229483348652    1.69376890416912
H         6.29446462052615   10.31414441415218    2.06400684455562
C         6.04179699928370    9.01547695073029    0.38127307500657
H         5.69855914094133    9.79896883016515   -0.27747088492505
C         6.15929334453469    7.71088686324960   -0.07553061918378
H         5.92624869575789    7.48139302661030   -1.10682466765679
C         6.59987581290850    6.70592786689292    0.76268480844916
H         6.72840302652502    5.69750673919606    0.38645580274586
C         4.71806811508354    1.38865407743582    1.66953403003971
H         5.73124654900936    1.06287225551954    1.42440003522991
H         4.27247525750361    1.84723229218399    0.77685312344167
C         3.83287526998649    0.26842091914911    2.20233270082871
H         4.41143245796120   -0.40801257465038    2.83223639422032
H         3.36742698030825   -0.30184442374518    1.40255950293987
C         2.83673781301354    1.05415691582113    3.04762922247215
H         2.07951986740644    1.51342700530159    2.40997863217357
H         2.34056325624122    0.45144742894224    3.80402670395030
C         3.74159159611211    2.11558486747684    3.66637869729007
H         3.22060587507237    3.05062297591662    3.89061598893446
H         4.19519564805014    1.74892035046297    4.59652889562885
C         3.85507393871147    4.81963546973197    1.14878942357900
H         3.07469284831641    4.09455238644259    1.42608156102002
H         4.50893841447076    4.38863403968334    0.38558308532077
C         3.20884012016474    6.14864091098967    0.72953191448821
H         2.17554431707399    5.99886463527684    0.42181833477346
H         3.75391762638988    6.59974127912153   -0.09616250618801
C         3.31798321660173    7.02609866768587    1.98743847096928
H         3.97787091502282    7.87197629836583    1.80439285353719
H         2.35187326616854    7.40297984180851    2.31588454991744
C         3.93352074902127    6.09040168665401    3.03309903362576
H         4.63249221839720    6.58925751660119    3.70957786933744
H         3.15078327013865    5.59609176404656    3.62764251865327
Cl        7.06157924984652    3.25845845333336    0.86206789645791
Cl        5.41199041479125    4.26276108356278    5.12562763022459
N         8.19949503718355    3.28967791990106    3.97048975586915
N         7.40072560449456    5.95670973902092    2.91646521233457
O         4.78861777212005    2.38157801014335    2.71244280560903
O         4.65880174383926    5.10941830270980    2.29117685517758
Zr        6.59687105696317    4.09819464168473    3.04076233554049

