46
CSD_code = QAKQOI | q = 0 | S = 0 | Stoichiometry = C21H20ClNOPRh | MND = 4
Rh        5.84490645825532    2.30736689558814    3.47359612059351
Cl        5.92884080293844    0.93476763723752    1.66735814243013
P         5.91135955400578    3.43730663584655    5.38969125082084
C         4.13871834531420    2.77783806485585    3.03652681118839
O         3.07108835194315    3.10486536292316    2.77380339605961
N         7.91694146896410    1.83629483544130    3.96543559348486
C         8.66304376876314    2.35119076077253    2.80426478347328
C         8.06435706303515    0.37407735569526    4.05223226048292
C         7.62921731478713    3.24152167348456    5.96776886865393
C         8.44934615308022    2.43899060915849    5.17679234377908
C         9.76762943124429    2.23501378969414    5.57190672052930
C        10.25059102621051    2.81335470996681    6.73134283941806
C         9.42697161783477    3.60217836672602    7.51922511966404
C         8.11704851662890    3.81377187555508    7.13795338428570
C         5.00532898341453    2.63828239086154    6.75716834687882
C         4.59923450506257    1.32674816070466    6.52787041041003
C         3.94840842863992    0.61474246003849    7.51773775919382
C         3.69881969235013    1.21229861859757    8.74319491851721
C         4.09604662499297    2.51975335154214    8.97366041563815
C         4.74990462504506    3.23509150073616    7.98637711470155
C         5.55591427141188    5.20126234535381    5.63116734530047
C         4.22473160242709    5.58471215977056    5.78137812779896
C         3.89372628071210    6.92293297992490    5.87273294524791
C         4.88557556149959    7.88883817623345    5.79945972792126
C         6.20708560918980    7.51375860830943    5.62147927015631
C         6.54359324781902    6.17522654740132    5.52774731474985
H        10.43170412365600    1.62248988478996    4.98004894367943
H        11.27675446469585    2.64537922682198    7.02221045115119
H         9.80789929056591    4.04825353120887    8.42544409953994
H         7.46363458727041    4.42804245029083    7.73999347274535
H         4.79046379078078    0.88532713089219    5.54757995398203
H         3.63076686665329   -0.40114321022849    7.33541338822304
H         3.18802577496667    0.66080682499355    9.51858094085571
H         3.89263020449500    2.98501582793254    9.92725155194529
H         5.04305160186989    4.26031505806855    8.16481987210833
H         3.45727254855229    4.82278287483904    5.82630458353831
H         2.86157950288683    7.21579035865983    5.99655946885139
H         4.62689235575244    8.93469009261411    5.87266789572847
H         6.97799336455246    8.26723616052643    5.55062192740396
H         7.57411427360944    5.88270173825071    5.37702076815809
H         9.73450652197999    2.13478823702124    2.88183972685233
H         8.27323653068703    1.88278006278775    1.89913981089236
H         8.52528131530594    3.43434601353009    2.73725318245368
H         7.56738753948786    0.01575096612844    4.95616256860437
H         7.59330463280317   -0.07842034923170    3.17818508988691
H         9.11637140385573    0.07148124768326    4.08223097202237

