29
CSD_code = QAZXIA | q = 0 | S = 0 | Stoichiometry = C9H10ClN3O5Ru | MND = 6
Ru        7.07042886214851    6.20483906158232    3.12328341666462
Cl        8.05039430608589    6.63142151719330    5.19910402215257
O         9.53575197564021    4.56195134173202    2.68158172785832
O         5.87152906208268    5.85621231479415    0.39593522174646
O         5.15103655194282    8.55969601488058    3.56936125052365
H         5.94882885817656    8.94631446971485    3.07690889826710
O         7.43189340082805    8.98088835056245    2.45979097731344
O         9.21898613747870    7.72017492894977    2.06041457077259
N         5.47719232914067    7.27799029013503    3.84558100245566
N         5.98990295994859    4.65956883335700    4.26662511215036
H         5.14446687255626    2.45016973680851    6.35126948305115
N         5.24367591634065    3.28177624440571    5.79077148058613
C         8.58523018027807    5.18386661212625    2.76655360350318
C         6.30449610001995    5.97114173780767    1.45149126006408
C         7.97159792102126    7.88229712564839    2.46108034668291
C         9.95266571540125    8.89092056857293    1.64674825111891
H        10.19314911384607    9.47902624460813    2.53867613851056
H         9.30738878383830    9.49134867130306    0.99617835612861
C        11.20692995568946    8.43459853673464    0.92857327888692
H        11.80829621681096    7.81648554806523    1.58921951434129
H        11.78832535492191    9.29912259577350    0.62057218859244
H        10.94368369272662    7.85018159148162    0.05103358957752
C         4.73757064874089    6.67933794456658    4.70467682546484
H         3.91766938087256    7.19533845643243    5.19417909817848
C         5.03071217111160    5.30787593062343    5.00414405899019
C         4.55322088303530    4.44285782000486    5.96098283440011
H         3.81794458979388    4.57577886178946    6.72648391092822
C         6.10162517439661    3.45711243552478    4.76247182762253
H         6.77440688512246    2.70050621481873    4.40830775346791

