48
CSD_code = QEFRUQ | q = 0 | S = 0 | Stoichiometry = C17H23ClN4O2Ru | MND = 6
Ru        2.49776732013599    4.36023051054817    9.38238126264958
Cl        4.13843010707470    2.62139247893325    9.31679364361458
O         1.07811524514116    5.90450170740532    9.30620522010916
O         0.17456731793317    7.32031681383001    7.85442906051028
N         2.40291216424544    4.22523142719196   11.25737080854573
N         0.82694127374701    2.99607145277044    9.53010605284629
N         4.10265759188289    5.70632975728665    9.89335787926721
N         2.49479522651025    4.67264282852676    7.42141009453550
C         1.28445607639179    3.75105521541921   11.81816087578384
C         1.15813315022658    3.66399472608640   13.19152336968668
C         2.20566249131911    4.11149733282741   13.99017706875324
C         3.34152119592008    4.64491837083013   13.38991460201618
C         3.41041092893911    4.68180904305739   12.00996335482116
C         0.21810974664222    3.43785418534249   10.80187559533670
C        -0.15342700529241    3.10266061683257    8.45237450713799
C         1.22971402162587    1.59549637221025    9.66300795835102
C         4.57567923131575    5.16084439204686   11.18556369775854
C         5.21214786652948    5.74170331364754    8.94267220392311
C         3.60575228765812    7.06474368562036   10.10770644522012
C         1.71559200617832    5.70317673045369    7.03844587464091
C         1.60231166375487    6.10447136085446    5.71755179851052
C         2.31305898422288    5.42868373983604    4.73974248687554
C         3.11076457157278    4.36249338866958    5.13428842871105
C         3.17340826058931    4.01955407270178    6.47168380162652
C         0.91534165015665    6.39141383302907    8.14358093023823
H         0.25761240714427    3.26611043084654   13.63252362942742
H         2.13301834439531    4.05561486460808   15.06434125886307
H         4.15968909612627    5.01660357574741   13.98658142642180
H        -0.31453337214124    4.37620091322096   10.60269025760824
H         5.20226643683361    4.28748625142574   10.96481866217395
H         5.17728982853727    5.90323955010176   11.72758328398150
H         3.24592380903603    7.48436994080439    9.16818264655254
H         2.77452373168915    7.05084414969316   10.81335855027334
H         6.04982737404173    6.33172137795584    9.33469038811280
H         5.54787740767224    4.72327951255056    8.74371389907694
H         4.87509057771463    6.19058761267922    8.00757186206274
H         3.79110516525340    3.19693292257749    6.81270058198404
H         3.68223386971180    3.79930215429989    4.41304779389257
H         2.24731380574262    5.71965677750091    3.70260179866226
H         0.95452184181295    6.93878395074076    5.49656844460484
H        -1.04077576222589    2.49224587990448    8.66531192112966
H         1.74389084433101    1.27216617124663    8.75858885783046
H         4.40166628866471    7.71147452306694   10.49978402260848
H        -0.49752254615621    2.69233009463573   11.17543014724603
H        -0.46471647341028    4.14020989432504    8.32841520112098
H         1.91748022226106    1.48347516948870   10.50161960297061
H         0.35384418640893    0.95469701604770    9.82889513167296
H         0.29434954213775    2.75427991057007    7.52049361025280

