65
CSD_code = QESXIY | q = 0 | S = 0 | Stoichiometry = C30H26I2N2P2Se2Zn | MND = 4
Zn        8.13751328259620    5.26202670859394    5.03413830508142
Se        8.88488077340945    3.84071392499455    2.61292664209118
Se       12.73770672027754    8.64988929992599    1.26235182976917
I         6.60029404017015    7.12705619709656    4.31600415991093
I         8.12527922770138    3.50912643903680    6.84464094343671
P        10.92073371553090    4.39807041846082    2.57367290407162
P        11.94337259735851    6.76532764157268    0.84017184821622
N        10.08831792571469    6.33140239245266    5.29195867170599
N        11.19614371303745    6.05091335151254    2.21765319536435
C        10.68562785461403    7.10596615260641    4.38200659988411
C        11.67144285535574    8.01914058658876    4.73464544301287
H        12.11357997430714    8.64490450551647    3.97500836234422
C        12.06979211745058    8.11827801790485    6.05517899693923
H        12.82843689232956    8.82859168939853    6.34590445947595
C        11.47125486956498    7.28757431601686    6.98802670287918
H        11.74626569514075    7.31392553745835    8.02978668269445
C        10.48402431964462    6.42193601783175    6.55906735126810
H         9.98843391700967    5.77116283182270    7.26511682635401
C        10.28656972873677    6.95559428565266    2.94018914745851
H        10.32048606764012    7.93613062405144    2.45227568964855
H         9.25913035416899    6.58414856999486    2.86766752040756
C        11.80024195676023    4.13092060868865    4.14276144111373
C        11.36124642338872    3.09575858653970    4.95877336578075
H        10.54529328708420    2.46344627673758    4.63409550415234
C        11.95773555428911    2.88605398055055    6.18891086519421
H        11.59421435705101    2.09890511857705    6.83063438821876
C        12.99706876484630    3.70521584906254    6.59771651377735
H        13.45362548641018    3.55302921841951    7.56378378811445
C        13.45286935046895    4.72223090264215    5.77203478940594
H        14.26854778396996    5.35530063221548    6.08883219794213
C        12.85863841557197    4.93866124315770    4.54341749074774
H        13.19773783111036    5.74087324625653    3.90345212277857
C        11.76437427991835    3.38502009142911    1.33169084234133
C        12.97966817512337    2.77705509908989    1.62392292969322
H        13.48476096183151    2.99231280112603    2.55520512803515
C        13.53720446625098    1.89656954111280    0.71507008512165
H        14.48105385977339    1.42404073512291    0.94110256308734
C        12.88168940669662    1.61060528573140   -0.47115029175680
H        13.31681227703249    0.91402414722906   -1.17158935690490
C        11.66211988595753    2.20484884440724   -0.75385946539251
H        11.14369855643433    1.97280458925405   -1.67175318518920
C        11.09776173171811    3.08494739957641    0.14896053555607
H        10.13262039466178    3.52967499204792   -0.05280512272238
C        10.69563130246511    6.81321513570744   -0.47806329106137
C         9.42836825404343    6.26202486702028   -0.35399502056526
H         9.14437496577246    5.72760181390209    0.54205296995030
C         8.51683898123780    6.39993353151745   -1.38568267798992
H         7.52979597551520    5.97572376924986   -1.28325971229875
C         8.86808016137445    7.08822605086307   -2.53494883216240
H         8.15241426835081    7.19793159346547   -3.33555009947303
C        10.13127800457161    7.64847222413535   -2.65559191254417
H        10.40135614333912    8.19381961730096   -3.54720994507964
C        11.04298897618961    7.52025229436728   -1.62608366821317
H        12.02449512814739    7.97150097447980   -1.69299584410012
C        13.28246850689526    5.66087676178719    0.32015485164767
C        14.41578460267735    5.59841288044151    1.12316845452043
H        14.42576027339612    6.12030790705023    2.07024699146395
C        15.52869048793193    4.90284695762138    0.69440058052171
H        16.40564131827855    4.85015666847384    1.32185274510025
C        15.52491014997877    4.29612283116556   -0.55191900136326
H        16.39997403817398    3.76541655240495   -0.89520966590421
C        14.40903931877118    4.38786492612487   -1.36688446916887
H        14.41384254877195    3.93299580004797   -2.34590364745296
C        13.28630593488958    5.07277022730333   -0.93811530005170
H        12.41559081111307    5.14804791809995   -1.57446291688383

