40
CSD_code = QEWRUI | q = 0 | S = 0 | Stoichiometry = C15H20ClN3Pd | MND = 4
Pd        8.62674501189102    9.27058942463144    7.38105235114243
Cl        7.74118907583975   11.45042554079315    7.71892573974031
N         6.84899221671392    8.32193874678762    7.81631047662938
N        10.38026724428473   10.10323054222826    6.96579754988842
N         9.37885619603530   10.78536151566339    5.02127509975926
H         9.32037297279911   11.49289153041433    4.30699978850434
H         8.50720773071858   10.60383616526994    5.54232861915992
C         9.23390181839302    7.41802259830837    6.91516576845840
C        10.34411154813675    7.01596679073973    6.17978751574430
H        11.09539233149670    7.73863204659452    5.88065347385840
C        10.52291083498215    5.68682657112842    5.82173314985140
H        11.39818992335707    5.39664023572697    5.25710019775561
C         9.58703480413409    4.73346688653527    6.17938242389817
H         9.72567395530286    3.70002346055134    5.89633057118993
C         8.46720034695544    5.11029058761024    6.90109779867214
H         7.72834250841612    4.37199117782262    7.18373073383481
C         8.29521406402295    6.43691656038786    7.26304270658005
C         7.11973178308611    6.89730242269533    8.08654457283756
H         7.37721611263375    6.79349816555949    9.14833621202643
H         6.21888786921718    6.29381469195959    7.89699528183182
C         6.08479734857795    8.46288951252172    6.57408295881805
H         5.94758214193497    9.52676321792616    6.35430666888112
H         6.62728886710449    7.98563022223835    5.75099570411101
H         5.09630613272981    7.99162996094712    6.66801135129834
C         6.09595057567704    8.91062728694716    8.92279733706938
H         6.69241615905915    8.86670555138291    9.83729938543709
H         5.88262265078695    9.95733223105013    8.70205542343977
H         5.15018336992513    8.37548486912069    9.08149019086115
C        11.41305654915597   10.03104647218377    7.80455503848211
H        11.25704877720601    9.45185073010306    8.71113058722089
C        12.61236937237919   10.65350292285949    7.53675501970948
H        13.43133657948901   10.58900327368750    8.23371265399168
C        12.74120351354204   11.36123873406893    6.34419537079243
H        13.67366615133102   11.85100038239910    6.10516219555714
C        11.68109308009560   11.44471767969381    5.46539950148763
C        10.47867595939937   10.79871761052155    5.82500135879172
C        11.77659061140439   12.19324529743779    4.17148542393156
H        11.55201001254028   11.53625069825028    3.33180173911236
H        11.07091891500526   13.02455755818154    4.15465608589539
H        12.77814488422342   12.59384012708389    4.04071597374621

