33
CSD_code = QIRKEJ | q = 0 | S = 0 | Stoichiometry = C14H12Br2N2O2Zn | MND = 4
Br        3.69547920677739    0.72050405048906    0.88983821413377
Br        8.06350463535893    1.77296359676725    0.95580384559418
Zn        5.88489568333411    1.22034341304356    1.60627601486411
O         6.23761880911444   -6.56198332226834    3.06204073108444
O         7.87018170385174   -5.98840309346436    1.63630978541304
N         5.47807139366043    2.48110562233561    3.32755445159097
N         6.02803340132750   -0.18306205664928    3.26137809836644
C         5.35848599500269    1.75769780101748    4.44801726057480
C         4.98087458582299    2.33890252539556    5.65817748212823
H         4.89199475878413    1.72847040697389    6.54334679934176
C         4.72441665557973    3.69854021101442    5.69730231189228
H         4.42823523031766    4.17371517134438    6.61998110190158
C         4.85500200216422    4.43546583302958    4.53049438245799
H         4.66585589804379    5.49635120717403    4.51409299535213
C         5.23532508641214    3.77878396665281    3.36835057075789
H         5.34965327289944    4.31609656949334    2.43653860979619
C         5.63497822323575    0.33706516020443    4.35672351146489
H         5.50901301686722   -0.25005015890280    5.26719525618138
C         6.24182899105444   -1.54657206298339    3.11756537717418
C         5.41701185103933   -2.49506432251286    3.73003077507321
H         4.57379245341195   -2.17286268491739    4.32286233782097
C         5.64207656241379   -3.83679938635063    3.51323467990347
H         5.00962018040221   -4.58576672547661    3.96508476881961
C         6.69038827317915   -4.25381685351801    2.69491710716477
C         7.50761930104225   -3.30832762087318    2.07862796142129
H         8.31218859516260   -3.63298848951656    1.43865751231253
C         7.27970645299856   -1.96374685664634    2.27951725396874
H         7.91747029647951   -1.22708141130138    1.81337722870488
C         6.88773934684972   -5.71464627418431    2.50151261438365
C         8.11501013455077   -7.36573918946118    1.39110027205868
H         8.89793447494390   -7.40573299473657    0.63842850755799
H         7.20732202450749   -7.85317887041208    1.02965611322422
H         8.43777150341100   -7.86218316075859    2.30860606751699

