34
CSD_code = QOBSUX | q = 0 | S = 0 | Stoichiometry = C10H19ClN2OZn | MND = 4
Zn        5.38625235507958    3.05162815516754    1.09424492043713
Cl        4.26951128035285    1.26444010383089    1.49918180548654
O         4.70602989164906    4.80090478913096    1.28423559545128
N         7.18703007128133    3.37241242949837    1.72227866072633
N         6.10804043084603    2.70563259407228   -0.93932890953502
C         7.61822860862166    4.55840502894882    2.06518525816825
C         6.76108601125933    5.67097954214566    2.12134930221081
H         7.19449184691112    6.59116222675384    2.48327546127020
C         5.42642544383513    5.74051557643637    1.75464144695624
C         9.06475160300667    4.79628258904548    2.42609304116999
H         9.34443498279730    4.18474932929055    3.28301369476093
H         9.22427793628353    5.83889052376914    2.68272421777743
H         9.72078524333153    4.54030029354106    1.59565572645542
C         4.74112372965425    7.08263172168820    1.90744147198472
H         3.73814105123968    7.02536200612813    1.49369708790231
H         5.30353983220856    7.86157907215978    1.39774806351794
H         4.67525959750090    7.34349339186815    2.96191809479012
C         8.08059248146357    2.25950024706887    1.49058412615207
H         7.56767877649789    1.35071069408095    1.81699016942676
H         9.01301933952856    2.34985582665861    2.05571608219479
C         8.40417375160218    2.13243852630928   -0.00462659217179
H         8.83789579742941    3.06846129845670   -0.36131732205927
H         9.15973845109217    1.35241169860538   -0.12312885424611
C         7.20896786719707    1.73206062254119   -0.87013016717658
H         7.57380834278864    1.53129788452780   -1.89081640133152
H         6.78951657134250    0.80642175651910   -0.46824477774013
C         6.54538051474257    3.94814395521826   -1.57035570354075
H         7.27880918144172    4.45170200503565   -0.94569032918040
H         5.69051527869634    4.61268671827044   -1.67864756586219
H         6.97973445703867    3.75941619630619   -2.56040455798610
C         5.03428513981894    2.12194632574893   -1.74566190001183
H         4.20723456420529    2.82647579430092   -1.81114944239126
H         4.67154660784619    1.21412092865492   -1.26821907763216
H         5.38479296140937    1.88408014822196   -2.75785262597417

