55
CSD_code = QODJOI | q = 0 | S = 0 | Stoichiometry = C24H23IN2O4Pd | MND = 4
I         5.86917868312032   -5.63860875181250   -6.36205223378825
Pd        3.36524418965807   -5.10319482011421   -6.25312432646440
O         2.86052852587422   -6.58571311740580   -8.53225000945188
O         3.75916137595394   -8.55007420624654   -7.89915779073249
O         2.00927776643711  -10.14172655124081   -4.98632877103166
O         1.24576251102935   -9.11916274055880   -6.83527176931588
N         3.51149017976208   -2.99921688495479   -6.30925208102603
N         1.36010879965392   -4.59559515910045   -6.52396010954621
C         2.96955178473831   -7.03649634043837   -6.24772965956550
C         3.16951268745234   -7.38213376172200   -7.65438304614824
C         4.08731426216551   -8.80582588358032   -9.25615353134945
C         2.38805196552586   -7.78672652601873   -5.29722187073493
C         1.88851520854681   -9.14491021472118   -5.64792911770247
C         0.83001623137875  -10.37847282301611   -7.34038043182660
C         2.15174391772942   -7.28189314344168   -3.93600474790928
C         2.89756425183368   -6.21015662485367   -3.43681249775343
C         2.62573681826846   -5.66787853940192   -2.19090043577433
C         1.60269450331370   -6.21354260997031   -1.42561982116304
C         0.86240100550265   -7.29323355396114   -1.88721770749616
C         1.13644974534683   -7.81314997686188   -3.14407779841419
C         3.45210620859545   -4.52754256784352   -1.67625600815144
C        -0.24046709341694   -7.87547682958386   -1.05504091971851
C         4.56083938132663   -2.24650610989678   -5.99650073374963
C         4.49439953335439   -0.86616234833523   -5.91316500943556
C         3.28002669119952   -0.24235885795634   -6.15641964457885
C         2.18532164112054   -1.02268461120553   -6.48089012259905
C         2.33042027600697   -2.40738136141848   -6.55923208637347
C         1.21377563920201   -3.30645550268136   -6.88347093124355
C         0.06258891405607   -2.86027477227197   -7.53150629190771
C        -0.96075820083337   -3.75229060845967   -7.79085730946074
C        -0.80980694746739   -5.06955259276457   -7.38500233878087
C         0.36829099391642   -5.44713128634480   -6.76427505692846
H         5.49428214110465   -2.76607911626172   -5.81365522099381
H         5.37537143869139   -0.29913858346974   -5.66036472515617
H         3.18529127918240    0.83079392864264   -6.09112799597177
H         1.22487683725170   -0.56463373071192   -6.65354176965122
H        -0.01689870277204   -1.83450613177810   -7.85367721333221
H        -1.85418723951521   -3.42731176955689   -8.30173957161256
H        -1.58357493049535   -5.79981713765511   -7.55747434451635
H         0.51699052168969   -6.47186950992304   -6.44928987926247
H         3.75757963628518   -5.82490906475438   -3.99560339842414
H         1.38728694798027   -5.79777459913770   -0.45102255338707
H         0.55321223250381   -8.64613375177635   -3.50692359266496
H         4.63164838262856   -9.74668210784631   -9.26453546140857
H         3.17907575851723   -8.87720592120640   -9.85917117479933
H         4.71080083932944   -7.99923823654465   -9.64809962733304
H         0.21662558705952  -10.89990094522571   -6.60210747222575
H         0.25616260277879  -10.17301949008689   -8.24080022205283
H         1.70117053108894  -10.99429315029039   -7.57247915897490
H         2.86895069071991   -3.88643969688512   -1.01819716186197
H         4.30133484139236   -4.91136063299831   -1.10994889923744
H         3.84112270023705   -3.93210466929079   -2.50167943571512
H        -0.06788860181720   -7.69049710945841    0.00245738936310
H        -1.19502845045714   -7.42261413784022   -1.32683271033047
H        -0.31834649372146   -8.94773475773293   -1.21814159032803

