25
CSD_code = QODXAI | q = 0 | S = 0 | Stoichiometry = C11H8I2N2OPt | MND = 4
Pt        0.82940858677164    3.11056190819494    3.14425685992631
I        -0.09454723454350    5.47670597144289    3.60717866916629
I         0.25762250590814    3.20075068871293    0.62711500066693
N         1.21461586320659    2.88640125773722    5.09494571915874
N         1.46839657844448    1.22652506410934    2.92319254940678
O        -0.99182462892470    0.13497788932029    5.20616913075802
C         1.82198490293718    3.77831035265708    5.87531831221853
H         2.37092406764180    4.56771044194558    5.37851370177827
C         1.74669730465875    3.72357292196848    7.25455688503993
H         2.25767882238672    4.46548124799486    7.84612483201713
C         0.98262069335852    2.72794257800574    7.84954396027956
H         0.86735466078835    2.68478038441237    8.92093264038899
C         0.37143918398951    1.79052478923210    7.03762509798124
H        -0.23215497444780    0.98963763282966    7.43491717454094
C         0.52921546370443    1.88327539272365    5.65620629992677
C         2.27750349283280    0.78701962976963    1.96114441259057
H         2.83617139051165    1.53524855438728    1.41397956062998
C         2.39251141925217   -0.55508417026336    1.65032086339227
H         3.06308540912384   -0.86480343322585    0.86546577788869
C         1.61230664134495   -1.47599089492013    2.33756067811654
H         1.64534935542035   -2.52469295910393    2.08788093459235
C         0.79077752526374   -1.01931491438855    3.35145457757157
H         0.16343285283581   -1.68163153884259    3.92726173990912
C         0.76082449567119    0.34404277346073    3.63858472796626
C        -0.03689437813153    0.77784843183605    4.82524989409400

