60
CSD_code = QOJRUD | q = 1 | S = 0 | Stoichiometry = C26H24ClN8Ru(1+) | MND = 6
Ru       10.25484147056610    4.76284075260751    2.34398286233725
Cl        9.18190807575929    4.53466108522389    4.42929146033875
N        11.34873461284988    4.95893638441038    0.50141855415480
N        12.49712051019703    5.24582664049667   -2.05816779324749
N        11.64541547021601    3.35006392113795    2.70497987684115
N        11.72673104213679    5.95567993318359    3.02966185120452
N         8.80709159037304    3.58759480460931    1.69475457474275
N         8.88329314222630    6.14673944254494    2.01629729571361
N         6.47765181818753    3.61036905944034    1.22727977468023
N         6.55869852239414    6.37568535258533    1.58136261954965
C        10.48072092161501    5.12738540515296   -0.67099489208531
C        11.17234075845964    5.25806364414499   -2.01628539395617
C        10.39250814257873    5.38762543893022   -3.16138841997826
C        11.02659057343583    5.50899463923031   -4.38618065309680
C        12.41305131562617    5.49582511031062   -4.42754959423171
C        13.09828669099157    5.36107536651804   -3.23291641599111
C        12.15105967196827    3.72710347341323    0.37718706158046
C        12.54219416853174    3.17544924787060    1.72130021830300
C        13.71953512512308    2.47135492256060    1.91821655254055
C        13.97543725796160    1.91518750428041    3.16264595561469
C        13.03434297225952    2.08213416412136    4.16764238553325
C        11.88963974169962    2.81111782912154    3.90144757275030
C        12.21861185497138    6.13762680311694    0.67595895387975
C        12.63650225708096    6.31568460423449    2.11042418555368
C        13.85322626047293    6.87721991418897    2.46327385395279
C        14.13776112849250    7.08836325971504    3.80414038325655
C        13.18478221179878    6.73178632265619    4.74652767827019
C        11.99858903891505    6.16316848377278    4.31986562672915
C         8.79618336737654    2.25440596495917    1.59728385271089
C         7.64023194538102    1.55274931504756    1.31394323311148
C         6.47556826646203    2.29701969106666    1.12454224441780
C         7.61290754725840    4.21047015725924    1.52158227878087
C         7.65573081275575    5.65682906653448    1.70495901077385
C         6.63343728985579    7.67077550628816    1.81089352509217
C         7.83820541155370    8.27540506117531    2.16996305426135
C         8.95021327384888    7.45990141349382    2.25673806922922
H         9.86326590847297    6.02091528068650   -0.51778466353235
H         9.79848839930219    4.27004598919431   -0.72148032821719
H         9.31565271902829    5.39257185092251   -3.08978484135820
H        10.44900015552254    5.61066247374722   -5.29199300706314
H        12.94571774498606    5.58777199037198   -5.35952792910338
H        14.17912042416457    5.34487204185279   -3.20036203646375
H        11.53267849284813    2.97167092156040   -0.12294140205606
H        13.03051245668375    3.90153159489100   -0.25163774221241
H        14.41918101006515    2.35752580951388    1.10539535903918
H        14.88394751780484    1.36212498180167    3.33907506918535
H        13.18352795830763    1.65823027046744    5.14682293008510
H        11.12842408281081    2.97620333464781    4.65502354332798
H        13.08806809018101    6.07660422332723    0.01313753432125
H        11.64445648241715    7.02580049978844    0.38562163559246
H        14.56158357413098    7.14885443661034    1.69667972127932
H        15.07788207149282    7.52353312180829    4.10270096080799
H        13.35656798159624    6.88640359623022    5.79884164706775
H        11.22538785996814    5.86195616571444    5.01711466939924
H         9.73952832670999    1.74561735172028    1.76368761650872
H         7.64399070900850    0.47769354988464    1.25233599412853
H         5.52566458435295    1.83768579082214    0.89432313211133
H         5.71298203696985    8.22697468303396    1.71223997150621
H         7.90436245354333    9.32938902366332    2.38051932281494
H         9.92046469824886    7.85574133234251    2.53661143951119

