42
CSD_code = RARKUQ | q = 0 | S = 0 | Stoichiometry = C17H21Cl3Ti | MND = 8
Ti        7.80021637280892    1.71603248727865   11.18688443414266
Cl        6.56260179121275    1.63132437137022    9.42047433299889
Cl        6.74991643895135    0.27381422466965   12.40038809942238
Cl        9.42399905742857    0.46364382387046   10.51696769171307
C         7.52750650257910    3.17308335780249   12.88855355509145
C         8.92065924809170    2.89887997375206   12.73936954096977
C         9.32918430007049    3.37629037031121   11.46027088585130
C         8.18839506738850    3.92580580103100   10.80917639163029
C         7.07531960315972    3.80245211328146   11.69078228426079
C         6.73016448143440    3.04398125782035   14.15365502679718
C         9.82734891286417    2.25620690479150   13.74622579389943
C        10.73714682996522    3.43232734946689   10.95037563045853
C         8.18759281783061    4.61522233408834    9.47807884073054
C         5.69481356605643    4.32652596271497   11.42664350606231
C         6.71027483026824    4.39614739702805   14.90102944547753
C         8.11159244691672    4.84978500201106   15.18867398119762
C         8.81656740751802    5.59204012004103   14.24864289561968
C        10.13108312439042    5.95503642428207   14.48060053125192
C        10.75783524126894    5.58350859660118   15.65828445970397
C        10.06105965723840    4.85080799004336   16.60418406097873
C         8.74795662692462    4.48402988878289   16.36740260725091
H         7.17171040005064    2.28354087881132   14.80117091053734
H         5.70375721495537    2.73853130758104   13.93263722698561
H        10.44735138644691    3.01017768044699   14.23491079217057
H        10.48293711899413    1.53152921575000   13.25892928381040
H         9.25236190062181    1.73741239620553   14.51135862837960
H        11.17164986398882    4.40804413073395   11.17921494693312
H        10.76927101367471    3.28667037285553    9.87084619706614
H        11.35080871257256    2.66575083335113   11.41906679906444
H         8.46162078039123    5.66583389133647    9.59881823465302
H         7.20156324788732    4.56744233013662    9.01874521525411
H         8.90565611427124    4.15101428932601    8.80197902755450
H         5.38423995460128    4.09358102887843   10.40712142908658
H         5.67012857220001    5.41181900078179   11.54876112484473
H         4.97476557648178    3.88455465369155   12.11341665230792
H         6.20125004118559    5.13614232712703   14.28169826316641
H         6.15199054683882    4.27699423316282   15.83091648248614
H         8.33187314102008    5.88846276032535   13.32936614423480
H        10.66856592247081    6.53090008003264   13.74126707566031
H        11.78402220381137    5.86708433913792   15.84017247348976
H        10.54287358422721    4.56253797993025   17.52699373126456
H         8.20966837894099    3.90873051936044   17.10734536554062

