57
CSD_code = RASLEE | q = 0 | S = 0 | Stoichiometry = C23H26CuIN6 | MND = 3
I         8.26735367777246    1.25563851828753   -1.51957347957615
Cu        7.18842510696329    3.47741211802321   -1.12255657038749
N         6.54276420955305    4.66462493067032   -2.56696647874601
N         6.17217349273438    4.21804547065100   -3.77822881720436
N         4.41602019799278    2.65248357659897   -3.25376277068750
N         4.54634483893496    3.07852550873388   -0.86988413151584
N         5.63723191393527    3.33307153349112    1.25503591322650
N         6.72424771653401    3.91749291165986    0.73962835221482
C         7.19927886064296    6.78873670972361   -1.51539944042286
H         6.90242400734826    6.29562353080854   -0.59220283098518
H         6.73797647864704    7.77263150723488   -1.56761715840585
H         8.28212160910652    6.91792741239898   -1.50964918903232
C         6.77921753789061    5.96421405702737   -2.67629705707934
C         6.55776517650526    6.36442838229145   -3.99967984446137
H         6.67145212227503    7.34986100954815   -4.40227019366772
C         6.16560362529740    5.22996822165774   -4.67794620436011
C         5.83773129450893    5.06467482458268   -6.11602309989202
H         4.78480201528183    4.82250842013139   -6.25200289804510
H         6.43969411663457    4.27468594302326   -6.56403825383104
H         6.04527751118104    5.99564676573509   -6.63646573806460
C         5.66668840243690    2.87137859003725   -3.94316358977078
H         5.52345619077124    2.70609601104607   -5.01404203491244
H         6.40423114686378    2.15750377939778   -3.56414268756426
C         3.45733430818584    3.67532190257972   -3.40234085915439
C         2.89484234722290    3.94447660484111   -4.62678838301765
H         3.15287283210273    3.33287406006626   -5.47811055164407
C         1.97911026573621    4.99273189953883   -4.76365120856218
H         1.54189221607101    5.18734837377475   -5.73207520803070
C         1.64617139750194    5.76755942748070   -3.68718764853357
H         0.95625077496434    6.59135782435382   -3.79536472814574
C         2.19949399681807    5.51547233598807   -2.41499899334919
C         3.10366159300024    4.43474370860296   -2.26252836322677
C         3.67827002777329    4.16273998894492   -0.98741949930163
C         3.37704562108967    4.99742120839120    0.06818403636446
H         3.81802159503119    4.84791373004094    1.03962158552780
C         2.49255741484067    6.06886556199590   -0.09414672644006
H         2.27753611886203    6.69387879313143    0.76064979973878
C         1.89805440579852    6.32031564499536   -1.29821328635600
H         1.20317329042753    7.13837610093473   -1.41389933303001
C         4.42004863257308    2.08716205220092   -1.93911034613241
H         5.24150796866597    1.37246554188038   -1.86022003448878
H         3.46511010382274    1.54177310540820   -1.82238398038169
C         4.77757184920802    2.51266649810764    0.43592202721876
H         5.26190011064467    1.53714199675870    0.29261359751088
H         3.83760875794380    2.36370733339415    0.98989931063445
C         4.49412435234220    2.97467319391145    3.45361309688801
H         3.51264090327249    3.33054852587700    3.13734658378092
H         4.65904746845853    3.28706501820966    4.48100051625488
H         4.49077349964782    1.88517643671886    3.41868714675461
C         5.57276966023835    3.52640887552805    2.59529877084866
C         6.67394681622133    4.28445573517169    2.93151827872918
H         6.94599556990236    4.62884507330431    3.90782805808308
C         7.37414994240785    4.50080758682124    1.73540916980941
C         8.64840950528826    5.23513116224536    1.52848820112329
H         9.04306728772669    5.01580956559393    0.53907007905141
H         9.37793829794618    4.93214009933015    2.27693239644528
H         8.49471981846652    6.31074530113749    1.61970469816494

