57
CSD_code = REJFIX | q = 0 | S = 0 | Stoichiometry = C25H23Cl2N6Rh | MND = 6
Rh        2.95280970379276    7.92035723774368    3.19075983611679
Cl        0.89844043471153    6.82367268323531    3.31602631658607
Cl        5.01182486454459    9.01316027239131    3.09133434647160
N         3.43663229103043    7.20181413533473    4.98371935698921
N         2.19607769538500    9.49929798909295    4.10574950801593
N         1.69839389528028    9.46203676527703    5.34208738604117
N         3.73816684506987    6.28793743144444    2.40175655702928
N         4.71853375693701    5.59389203878866    2.98005220627125
N         2.46010856409039    8.66178170474659    1.34043679881447
C         2.52479256168366    7.24874246053975    6.00139901599254
C         1.59510416472584    8.30125275593381    6.13125754875093
C         0.58259474331401    8.23838106186774    7.08385923779855
H        -0.15616433485971    9.02549616503265    7.11745537692088
C         0.48911635555114    7.18490040077432    7.97338564193783
C         1.44566937278214    6.17313808755280    7.89257472397938
H         1.39543324498283    5.34005587506281    8.57867418901115
C         2.42524518518776    6.19784018333989    6.93116989688960
H         3.12950865699544    5.38249741667590    6.85305667844400
C        -0.59657311329321    7.13079122036478    9.00479492880786
H        -0.20100399398041    7.40063101592971    9.98485348420729
H        -1.00551798572264    6.12508788237074    9.07626117297771
H        -1.40145622609066    7.81898972456696    8.75946368494332
C         2.17052307299874   10.76503781579682    3.70189101940574
H         2.54942529005970   11.05351495767741    2.73988657740982
C         1.64060917780380   11.56813605753533    4.70651915853183
H         1.49572013060511   12.62804075109365    4.68493514278423
C         1.35369116211872   10.70247090562318    5.73831290412051
H         0.96824820779561   10.90151171787441    6.71663455350684
C         3.35290288995924    5.61368272519602    1.32337410155812
H         2.54958509546282    5.96211855012425    0.70243269180555
C         4.10692156992891    4.45098985991583    1.20211562611715
H         4.02968166136286    3.70085076103379    0.44303246970950
C         4.96599550106971    4.47120190291278    2.27828435312720
H         5.69306686828115    3.75173456153607    2.59316829877731
C         4.68237767842911    6.67293401984244    5.18140808692424
C         5.36771374187358    5.96607991769372    4.17196106303925
C         6.69080215360781    5.57471895235823    4.35329980125149
H         7.21134759594772    5.09232881763934    3.53906623239542
C         7.35739501662948    5.80610920670151    5.54124136062825
C         6.66395885566544    6.44899905982170    6.56687770052919
H         7.16383264129741    6.63975624359127    7.50550494927668
C         5.37163763416841    6.87701798348598    6.39049962412231
H         4.86440495982832    7.41169568954458    7.18025918363139
C         8.78864852241702    5.40274383857614    5.72495932153897
H         9.42475057897285    6.28676647615513    5.76660962620842
H         9.12688064267436    4.77668503435598    4.90315611025465
H         8.91650365275772    4.85662657814410    6.65820029946281
C         1.21063443655666    9.04145748977160    1.06141022607380
H         0.47699625755858    8.90976246120833    1.84566001509437
C         0.84145137736106    9.54922430363215   -0.17115935080217
H        -0.18319425818484    9.83799976577851   -0.34361280617807
C         1.79919143011635    9.67710836861013   -1.16467978062034
H         1.54305855470578   10.07188872722148   -2.13611442591729
C         3.09554378311511    9.28279580755134   -0.87391471833929
H         3.88096179536632    9.36140812798659   -1.60873550841435
C         3.38310342829935    8.78131736046701    0.38266323474384
H         4.39209221126117    8.48903069546039    0.64152496525929

