44
CSD_code = RERFUR | q = 0 | S = 0 | Stoichiometry = C17H20I2N4Pd | MND = 4
I        -0.20177852068546   12.54350779066354    8.37120123350134
I         3.16227639357662   13.10385575527817   10.08273852176546
Pd        2.20777701922080   11.56313295821144    8.21538131652009
N         0.71814569611106    9.69260376293396    6.18260606480729
N         2.50881588464323   10.64572654416607    5.47317600731248
N         4.52384044817192   10.81036805274423    6.64770251731474
N         4.91551825340485   10.16784440644751    8.66604520894278
C         1.71174529879641   10.50870051649721    6.56141798670358
C         0.87702497828015    9.33226515680366    4.86895286787548
H         0.18088731535820    8.69319619838966    4.36618654026130
C         2.00930238008382    9.92074918886416    4.42108158190241
H         2.48320076380829    9.89704405100981    3.46164981433981
C         3.76806376125073   11.34861036181025    5.54491494843150
H         3.57965129111907   12.42494204602041    5.72419553761575
H         4.32035854657942   11.22341398758074    4.60997334960700
C         4.02541338745007   10.82279586085671    7.90552876159606
C         5.96136261626021    9.73345060034314    7.88639704686359
H         6.77673274077204    9.17198573966793    8.29197750006903
C         5.71490115526041   10.12603046371635    6.61679048918014
H         6.27898511267469    9.99345474566852    5.71677668820894
C        -0.36140642957657    9.23155283643009    7.01517379481760
H        -0.51186868260755    8.16223494278131    6.86507396547125
H        -1.28265968682003    9.76605242479798    6.77592737437744
H        -0.11564970526819    9.42412714181121    8.06135499565082
C         4.86214018913886   10.01275812654148   10.08123585098079
C         5.89907194042073   10.54983149528571   10.84980344069508
C         5.85721590816198   10.38212476081337   12.22399348584992
H         6.64859192703008   10.80569720650951   12.82421241656781
C         4.81283911120928    9.71578455688265   12.84782321200267
C         3.78361086969195    9.21995560516200   12.06369434406628
H         2.94654509677354    8.72698625601669   12.53603296347453
C         3.78444357609273    9.35991404997576   10.68376669873141
C         7.00941068630906   11.34872121345191   10.23581425729710
H         7.42523469421042   12.02260310611607   10.97961911248401
H         6.64598038933352   11.94955839756797    9.40484746553920
H         7.81406429767052   10.70659314043450    9.87647948312026
C         4.77409973888894    9.58576912484767   14.33740663617342
H         5.77640340867200    9.46792425183382   14.74369451706330
H         4.16320122140575    8.73865663833299   14.64056144925428
H         4.34034185369044   10.48884981092377   14.76761847934806
C         2.60438800866398    8.86830616251814    9.89870936405763
H         2.05555993480166    8.12082350161732   10.46677813157778
H         2.90008597037910    8.43394209373686    8.94027893224327
H         1.91213115959381    9.72305496794096    9.71790564633297

