42
CSD_code = RIFGEV | q = 0 | S = 0 | Stoichiometry = C18H14AuClF6N2 | MND = 2
Au        9.57028585701301    4.72151229778355    7.62833826322366
Cl        9.64857939192216    3.54942456958182    9.54350620083632
N         9.62631856279184    5.70233143269294    4.78307401789672
N         9.29857202541939    6.76760904806044    3.97207922289172
C         9.37910178579484    5.93691699892063    6.06368019563953
C         8.82941347500417    7.25149153303136    6.10031380112746
C         8.76471800676079    7.72800292070012    4.76889154506871
C         8.21837236278780    8.97258842084665    4.46459382781505
H         8.17597562170546    9.34359786468087    3.45260082236169
C         7.72260331691793    9.71400323757603    5.51306584873982
H         7.28090241899243   10.67823220855772    5.31414485892862
C         7.77883023573360    9.25945736563454    6.83465000304131
H         7.38982580545309    9.88477833078611    7.62324692888456
C         8.34615067776291    8.04271634095861    7.15678184314543
C         8.46299013302574    7.58747471569744    8.55284166483466
C         7.33598895869705    7.37167271952832    9.33255937578656
H         6.35155251032992    7.54994824299366    8.92559361210920
C         7.47114351846953    6.89070976224479   10.62928682324024
C         8.71861286933064    6.64158279486635   11.17882492493017
H         8.81628188374895    6.25076144857990   12.17949094095423
C         9.84121700508821    6.89327271932311   10.40466121535081
C         9.72195009280562    7.35033542433725    9.10108237369461
H        10.60868475279663    7.54617177907948    8.51680718297530
C         6.21517831158186    6.66361441920735   11.42578373929381
C        11.22094010412087    6.70571996368211   10.97494035583818
C        10.25584934988254    4.52015798973181    4.25414498224452
H         9.87655445037471    4.32432462184199    3.24917163600390
H         9.97065322998761    3.69180596416685    4.90593909651828
C        11.77622201968942    4.65741119382930    4.24830919992595
H        12.09962105426757    5.49935024164157    3.64014819398312
H        12.22351225108436    3.75122394084492    3.85139509646886
H        12.13381660672803    4.80444729864901    5.26431452043594
C         9.37239803612863    6.73910425164225    2.54232459232003
H         8.65291833248938    6.03279846166530    2.11726345116326
H        10.37708939209430    6.47488671878447    2.20702264513037
H         9.13776416699652    7.73457454403556    2.17212466767878
F         5.37867624043799    5.80117550450494   10.82744301882240
F         5.51380112430087    7.81040793716196   11.56628095675207
F         6.43489123532308    6.20554423903102   12.65861889971121
F        11.26206961889280    5.91842344896122   12.04540496084698
F        11.73347334065204    7.89966703546509   11.36925921987439
F        12.09229986661549    6.22657004867821   10.07899527350636

