63
CSD_code = RITQAM | q = 0 | S = 0 | Stoichiometry = C29H30ClS2Ta | MND = 8
Ta        4.42757003031612    2.27559564174070    3.55614854943088
Cl        6.37173143736399    3.39742255698981    3.41322394787164
S         2.70266642147502    3.69692570306072    3.36712754373726
S         4.10531333772995    0.88529879868394    5.52565684073899
C         5.47608703006782    0.51477521505475    1.49350920126258
C         5.54665408483185   -0.62342713054918    2.25734442798041
C         4.22920677855610   -0.93033549715272    2.75945564412010
C         3.34340890665980    0.03395280065520    2.31739469201939
C         4.10220257561721    1.02656687162612    1.55507662114492
C         6.55189577261934    1.15488916237992    0.67728476124066
C         6.74846442854045   -1.45754881344854    2.55370004134863
C         3.91999423978990   -2.10179969010280    3.62668687771363
C         1.85072635263229    0.02967468432275    2.44869590290713
C         3.49929776109794    1.77144296695374    0.39381263041724
C         3.73407816104340    2.06968773421762    6.92212626354553
C         3.84690666325790    1.29849309369619    8.22402837500084
C         3.28868965673365    0.02971877067356    8.32208266971544
C         3.31808904897577   -0.66350556478152    9.51730929022268
C         3.89540962348068   -0.09221323979459   10.63840391943344
C         4.43759648466950    1.17777910562234   10.55390026023202
C         4.41191942141651    1.87180715285923    9.35680992069030
C         2.30553959759581    2.57761205289771    6.87335344821536
C         1.35842965153432    2.10385878607875    5.97903471822197
C         0.06106679429244    2.58687798655052    6.00805733203510
C        -0.30787192926700    3.54234236176038    6.93578928744340
C         0.62726048520518    4.00689837882988    7.84594548897980
C         1.92135252280646    3.52521942772988    7.81945878798937
C         4.77557332241593    3.15562894273879    6.77328039669995
C         6.11241894894943    2.84266061417207    7.02025523293559
C         7.10238575762601    3.79063923556321    6.84559302025887
C         6.77594811555245    5.06501260747343    6.40980636541802
C         5.45498497675020    5.37983311485716    6.14381364080340
C         4.45790892070245    4.43348741729619    6.31893984897877
H         7.53862335043597    0.84271748585447    1.01145387385629
H         6.44459251074028    0.87158874755083   -0.37158562685325
H         6.49646086358724    2.24159072843879    0.73956471932520
H         6.67666179330950   -2.42294061745980    2.05084134780548
H         7.65877993091100   -0.96769330393580    2.21794127869340
H         6.82599524314886   -1.64245893315042    3.62475963364882
H         2.87968429760556   -2.39971776524993    3.52299115212480
H         4.55591219990315   -2.94694540309123    3.37353769392832
H         4.09744175946572   -1.84422030794475    4.67378764543001
H         1.54284142929592   -0.48452537274648    3.35662452001221
H         1.46214014815583    1.04679018892279    2.47753108410254
H         1.40188815355543   -0.48415265865913    1.59645309350743
H         2.52544981937730    2.17980795745339    0.65845490288567
H         4.14424868801017    2.59162400100627    0.08088075431249
H         3.37113665544840    1.09553955669037   -0.45327994634550
H         2.83472227549085   -0.41560436465342    7.44940510098337
H         2.88536826006381   -1.65142305351450    9.57360659319557
H         3.91924106983489   -0.63209314014863   11.57334805782918
H         4.88392646607980    1.63571554796746   11.42451908006473
H         4.83761306998539    2.86353291880652    9.30898742944393
H         1.62928945248232    1.35484019840800    5.24856703021462
H        -0.65936291430636    2.21368073161169    5.29602054903913
H        -1.31814048337201    3.92287063514638    6.95407094340949
H         0.34869886628047    4.74814796449420    8.58050069470742
H         2.64386520955660    3.88896786803134    8.53541400355467
H         6.36973255654970    1.84404030629145    7.34723913951122
H         8.13245372340687    3.53127947295231    7.04257108809845
H         7.55059086238383    5.80404707298415    6.26793644614983
H         5.19186185272854    6.36609144312184    5.79165304636938
H         3.43197750836748    4.69563084593737    6.10219872216295

