45
CSD_code = RITRIY | q = 0 | S = 0 | Stoichiometry = C18H22Cl3NTi | MND = 9
Ti        4.46628013730464    7.79689337890839    9.30131906104270
C         3.69963980424890    8.81649112585721    7.31117487375641
C         2.82866318306846    7.72817650748766    7.58625120987906
H         2.57807808233226    6.91673007999931    6.91806111311585
C         2.16589027783443    7.97754485361084    8.80445619114436
H         1.37698980959980    7.37046863060961    9.23172550262403
C         2.62660696394525    9.21377647175969    9.30854050009320
H         2.25999949526307    9.71676911044236   10.19475213955460
C         3.57336274442323    9.72575892837673    8.39928409120411
H         4.03371558607021   10.69951325821695    8.48752404101975
C         4.39643201914209    9.10018822901535    5.99260612649330
C         3.29604670843413    9.14600640797285    4.91766966370770
H         2.84571315553192    8.17199281513497    4.75649932238055
H         3.68589055645970    9.51549546570798    3.97345003038468
H         2.51123198677463    9.82351660203098    5.24675364576435
C         5.03503959935774   10.49737775880186    6.05836555135025
H         4.27425130856344   11.23635069207051    6.29621024061519
H         5.46204280915869   10.77654634325037    5.09976605770406
H         5.81454981955765   10.53739268727072    6.81725209485575
C         5.50651194304893    8.04542005299289    5.64615566790330
C         4.99647393379890    6.59044000634610    5.58280992498920
H         5.80135586470418    5.95085048776295    5.22545673769217
H         4.17091929138275    6.50653256886101    4.88235191794228
H         4.69536062484724    6.22270594251098    6.56046143664252
C         6.14827949904860    8.32267424924231    4.27907581665323
H         6.56361076238647    9.32087691508100    4.19919940077042
H         5.40818085745337    8.19192155417844    3.49500785263163
H         6.95209662065577    7.61346503772300    4.09654338127275
C         6.53416999197760    8.02263156666389    6.75649855391288
N         6.18609682554411    8.05999790697518    7.98199535751221
H         6.98562656243016    7.97843034878036    8.62100832032849
C         7.96438184441048    7.80653808872523    6.43585875081004
C         8.77639505732358    8.80010490575460    5.90066808450229
H         8.36582027978920    9.77428894099289    5.68351862215542
C        10.11839679758370    8.54826319942874    5.67722525913919
H        10.74681075055026    9.32519646924370    5.26848086399177
C        10.65555481200812    7.30775234830634    5.97807560699291
H        11.70160528397029    7.11389094163255    5.79524555831670
C         9.85268785533854    6.32072325644392    6.52613632459025
H        10.27067087124763    5.35700657059632    6.77417315181678
C         8.51451093596267    6.57032947646948    6.76978239147509
H         7.88113884170347    5.81265904989264    7.21029594217505
Cl        5.81929641521496    9.05752391494747   10.55199224344456
Cl        3.65758212446584    6.98429746933222   11.20468392105871
Cl        5.20174130609851    5.71238938458981    8.93673745459536

