50
CSD_code = RONYOK | q = 0 | S = 0 | Stoichiometry = C21H24I2NPPt | MND = 4
Pt        6.33322633859494    8.41670694051425    8.78903324080559
I         4.81938168077182    8.01273501631738   10.90560381345075
I         7.91003428984827    8.58794386639267    6.71113597339817
N         8.07236654101964    8.03569858344763   10.01982676818043
H         7.73178208423594    7.69693521840658   10.92543329622487
H         8.63449889832338    7.28751192927038    9.60566755580432
C         8.92323337568261    9.21541914602958   10.25400899947179
H         9.46118291045774    9.42900365889026    9.32258167817479
C         9.93212974664864    8.93956570186068   11.36568049531079
H         9.41943255253786    8.73604645632473   12.30494566822133
H        10.57655918976993    9.80234787901215   11.50832327728429
H        10.55927877711722    8.08526736004689   11.11656847264172
C         8.03048257666831   10.40587513451106   10.59294001353892
H         7.31957896102518   10.57945928266024    9.77510551944370
H         8.62681149080914   11.30569247361877   10.71588001745554
H         7.47718459946232   10.22367021593051   11.51306360531819
P         4.44790301448296    8.69054308118189    7.57494512900078
C         3.38476015200092   10.09843164762782    7.99848918583009
C         3.77804883833213   11.00271761112883    8.97605606161355
H         4.71122359752134   10.84786383620629    9.50422267304838
C         2.98238436017057   12.09475294470700    9.27284049091576
H         3.28964320591469   12.79286622573772   10.03704361390937
C         1.79450079251662   12.28838713557276    8.58885573836844
H         1.16932897721993   13.13718270075789    8.82284302358814
C         1.40989306645240   11.40119532694937    7.59459000764618
H         0.48959566543403   11.56235791648470    7.05239234734041
C         2.20456383779240   10.31272012079144    7.29018972523198
H         1.92193100614333    9.63106950757119    6.49835222719900
C         4.53086865574047    8.90032517797855    5.76841977597195
C         4.93861575626695   10.14635514275434    5.29762358157456
H         5.17434146995919   10.93079063268070    6.00636550261722
C         5.05585040553586   10.37104598633714    3.94102138468878
H         5.37833164636475   11.33642955920939    3.58073270929230
C         4.77011581562655    9.35239171716357    3.04492791556928
H         4.86815745480624    9.52487312345143    1.98359436139098
C         4.36721527548108    8.11265411081429    3.50958027038768
H         4.14924129684040    7.31710306541606    2.81224818846091
C         4.24812720431730    7.88107813889018    4.86930220934921
H         3.93779270433346    6.90911050360851    5.22686880954022
C         3.48170671796166    7.17064770084760    7.78268720558142
C         2.14235714481773    7.11440931836623    8.13928372075317
H         1.58066223556087    8.02391706523172    8.29643460418633
C         1.53717938685041    5.88269570996613    8.32422668620251
H         0.49632380196799    5.83809170249172    8.60886652399268
C         2.26070672413149    4.71372218386596    8.16041687150004
H         1.78205789376067    3.75780607238298    8.31238491940072
C         3.60412270393340    4.76731365173798    7.82122284484989
H         4.17407596129015    3.85643010580826    7.71127457718451
C         4.21418264792770    5.99240897291413    7.63959664815015
H         5.27222656956642    6.05203344014655    7.39500207093443

