43
CSD_code = RUVCUI | q = 0 | S = 0 | Stoichiometry = C16H19Br2N3O2Zn | MND = 5
Zn       10.64837252189075    8.30627954260708    5.21301857001713
Br        9.22285363905275    7.97698833822003    3.32544594639006
Br       10.56033117961296    9.44565136115472    7.33091441790459
N        11.95812605266573    9.79600054547981    4.20869772390498
N        10.48747238782347    6.24112271919332    5.98897894840693
N        12.81073139341994    7.50108543282704    5.42208148032073
O        13.56044714104033    6.56221644019307    0.72619436714074
O        13.59922076281388    4.88762499542805    2.21554120228400
C        11.53859044939345   10.73214061820455    3.36871100158727
H        10.49046581053968   10.70179154153165    3.10481720683355
C        12.38211033697322   11.69465915275061    2.84427646219125
H        12.00000467919315   12.43957171440999    2.16590917439700
C        13.71810449210311   11.67311317282638    3.21365322970605
H        14.40951225457893   12.40754695826508    2.82896237628004
C        14.15437583951524   10.68901388290247    4.08380369139912
H        15.18681816595864   10.63698835893830    4.39367581948276
C        13.23848251919423    9.76025712969044    4.56138789527022
C        13.63434997368954    8.69883796864344    5.54926428042629
H        14.70517227954715    8.46883909610450    5.45305709164206
H        13.46968184256810    9.12844777291947    6.54420026990577
C        12.73308356473034    6.75442785307390    6.67629789376549
H        12.56807803225455    7.46034175086989    7.49774755846761
H        13.66014932965099    6.20028648164368    6.87981713046730
C        11.55724125978722    5.81954545598191    6.65653518628246
C        11.56924060285911    4.60267245481296    7.32407592014743
H        12.45232196162643    4.29001055907365    7.85919667163633
C        10.43501105839867    3.80936774366300    7.28902709346128
H        10.41746226096251    2.85912750500692    7.80092247349096
C         9.32919716016560    4.25351119976482    6.58099785771854
H         8.42832745144696    3.66511138994032    6.52114824183646
C         9.40352492509319    5.47930032929888    5.94418217994244
H         8.57163603295091    5.86576853318514    5.37153918779562
C        13.30766254011172    6.60984723531179    4.37422823069785
H        12.76183289165400    5.66548759710085    4.44420393521726
H        14.37416950091398    6.38780377713270    4.54080821773932
C        13.12179366327054    7.13645676199898    2.95708819090107
H        12.07920685755655    7.41629145311607    2.78627893201227
H        13.74187229378365    8.00775916483489    2.74460403788363
C        13.45216636873928    6.05173355152030    1.95296405912693
C        13.80694716975487    5.63533298274321   -0.32503036454010
H        14.67949925179134    5.02182775500550   -0.09220651312154
H        13.97953089108455    6.22908762799796   -1.21854658129124
H        12.94212120983918    4.98362409463236   -0.46057069512586

