51
CSD_code = RUXGEW | q = 0 | S = 0 | Stoichiometry = C20H28ClNOs | MND = 9
Os       10.72563388323726    2.12797759135908    0.94293693333658
Cl        9.41953985838589    3.74116841789618   -0.10951733866326
N         8.85030179434353    1.26454513468582    1.67130500118540
C        10.44429099878654    3.11553240456164    2.70979072396674
C        11.41122508400693    3.82327481271672    3.41512478969298
C        11.14018367870690    4.39575576830648    4.64889576054534
C         9.88140763288846    4.28150865301404    5.20545614511513
C         8.88836737860350    3.60474630538889    4.51508952340592
C         9.16291986754421    3.03056727874000    3.28620520814057
C         8.12040066868693    2.32150748709373    2.44476557944189
C         6.91501473922618    1.81889427344286    3.23703924353202
C         9.12796637671119    0.11576596694721    2.54129146954482
C         8.06201410531467    0.81335950203881    0.52015886911057
C        11.88687233235457    1.45787272058724   -1.25044972106890
C        11.66374182825117    0.26961844494063   -0.57965077904889
C        12.01071588519090    0.13500219407158    0.79217174257076
C        12.75181478572797    1.11938067431960    1.46613192683055
C        12.93942452276390    2.35965314020000    0.79802055621596
C        12.42953948449862    2.54394022299735   -0.50322102440643
C        11.56156157220987    1.63080647259143   -2.71298039540329
C        12.34910317074283    0.63180596712353   -3.56493706792761
C        10.05593083414625    1.49819232195265   -2.95517136016697
C        13.38682725678197    0.86002020082833    2.80003842243816
H        12.39848449056744    3.96260617633681    2.99779513873842
H        11.91572346759127    4.93985258329283    5.17013096138269
H         9.66454476304854    4.72796702681927    6.16482626770762
H         7.89958008935820    3.54190581076447    4.94400265267524
H         7.76774381907755    3.03915433086517    1.69245015264962
H         7.21620624509687    1.28608677448466    4.13559592706587
H         6.28088466106088    1.17498671111607    2.63278990310524
H         6.31564753341194    2.67477020808475    3.53377208402336
H         8.20239220717480   -0.36772190227378    2.86503954976433
H         9.68166094978683    0.45429594292186    3.41675405831948
H         9.71972940378566   -0.62323226249599    2.00464443353645
H         8.62855660070477    0.06965861078078   -0.04023177787619
H         7.85700845906247    1.66526593902856   -0.12803935332819
H         7.11680297170275    0.35818561777676    0.82989439864657
H        11.24643769197121   -0.58506343507055   -1.09556291430738
H        11.88852775707644   -0.83606595889552    1.26118157178307
H        13.57576219078679    3.11831378912624    1.23840082564400
H        12.63419814647785    3.47603153381949   -1.01994358925002
H        11.85928076631185    2.64302224605644   -3.00825797982735
H        12.05293999113226   -0.39106822004999   -3.34149838211384
H        13.41766673744467    0.72820122292351   -3.38014107946008
H        12.16396435807370    0.81638598367902   -4.62063121425601
H         9.70972623359926    0.49403830135077   -2.71707114108809
H         9.82551711608590    1.70030602673992   -3.99853975389806
H         9.51850206287028    2.21451612765249   -2.33636464576121
H        13.08991398457379   -0.11054085559982    3.19190557905765
H        13.09829719296468    1.62785593349484    3.51715713715832
H        14.47310237009458    0.87798978146537    2.70494698152119

