53
CSD_code = RUZXUH | q = 1 | S = 0 | Stoichiometry = C17H29ClN5Zn(1+) | MND = 6
Zn        9.33000544564057    2.95174761453441    0.89388620662665
Cl       10.91718575479072    2.93545190880090   -0.68173422198308
N        10.16221687099424    1.49978757060378    2.32965804250855
N         7.81597340178221    3.09853776084682    2.48072169742220
N         8.27698555500383    4.83821176305928    0.37924044861564
N        10.32077856826122    4.22513098031297    2.30759550949946
N         8.54983015750523    1.11300407645640    0.10496006645931
C         9.14370426112803    1.20174889953474    3.34315091602543
H         9.43625015309371    1.65010000162033    4.29261490948052
H         9.06528263002764    0.12050498079355    3.50495280878209
C         7.74963372116190    1.72960965308920    2.97585535242770
H         7.31881351674180    1.10277618682372    2.19591679688647
H         7.10502977522752    1.65237999876971    3.86236169976883
C         6.63388412596190    3.49002191990186    1.72137865763813
H         5.77319785128890    3.67767314847232    2.37713767381824
H         6.37959355858409    2.65576401417949    1.06687330254583
C         6.88770859920583    4.74236208066676    0.85387542084149
H         6.21199964456597    4.68721059678699   -0.00188352976284
H         6.61071259274856    5.64416481054749    1.40752449375923
C         9.03439719567592    5.90858597448030    1.05967293074304
H         8.47971674725973    6.25949647188364    1.92956928591060
H         9.16014571905042    6.76400076458145    0.38885719303140
C        10.42065389897379    5.44816451041502    1.51498675109072
H        11.03017837124648    5.22786514777660    0.63820164165062
H        10.89775695799657    6.25937630588806    2.08030884623146
C        11.60176193849515    3.54157456920841    2.46968845543123
H        12.24392362083569    4.04586949259782    3.20193571965437
H        12.10131494931347    3.55717036325240    1.50123343738946
C        11.39587734139044    2.07127797353907    2.89355855788207
H        12.26481361962024    1.50516181971323    2.55432887845281
H        11.38085542934520    1.99116028410400    3.98348389951180
C         8.13795286439251    4.06017911744443    3.53407669000090
H         7.83958931028656    3.66898853640629    4.51283496984018
H         7.55286139202253    4.96245345190482    3.36749168024897
C         9.64087754408484    4.42637573746736    3.58497885311239
H         9.73891354002146    5.46675737360583    3.91369842932639
H        10.13037763276450    3.81169839947817    4.33802421559381
C        10.42313737601002    0.35763743866578    1.45854592146965
H        10.63634847059662   -0.55334295503650    2.03488906508328
H        11.30244718039776    0.59565475488821    0.85008938855838
C         9.32241184309916    0.09107363256259    0.46997795758985
C         9.18571846153285   -1.16949984699768   -0.10132494672535
H         9.82689614364120   -1.97612558715259    0.21759779477495
C         8.23672295540933   -1.36695210750989   -1.08794965222802
H         8.11893701180416   -2.33402620384053   -1.55106510307550
C         7.44668326443065   -0.29331653196808   -1.47428865221712
H         6.70166010707345   -0.39631918013465   -2.24585584559789
C         7.63977678852818    0.92214607903931   -0.84765644894046
H         7.04561494570768    1.78384514557171   -1.11894068987004
C         8.32661355237882    5.05172059257562   -1.07166992294062
H         9.36412774078303    5.06939485884436   -1.39645134214522
H         7.84455801606377    5.99313635472337   -1.35391301315784
H         7.83399188605395    4.22952929622135   -1.58650119704014

