55
CSD_code = SAHYUV | q = 0 | S = 0 | Stoichiometry = C26H24Br2NiP2 | MND = 4
Ni        1.18501156125782    3.05956867880168    5.59995898103428
Br       -0.61683560999810    2.64473963865356    4.32071697489964
Br        2.70982376316836    1.80292004752267    4.52700599551150
P         2.76231686551317    3.65305110498764    6.91361022166397
P        -0.08921323879457    4.26846199786235    6.81649722415665
C         0.90521103717984    5.33611018681834    7.97538345239689
C         2.08922830326492    4.49846640627997    8.43171596679204
C         4.17662794338277    2.69998329391599    7.51862895216554
C         4.09641793235146    1.99567389794133    8.71584311797761
C         5.16719874084963    1.22912193729903    9.13765861302623
C         6.31209358255403    1.14789924955881    8.36233001034549
C         6.38313027588052    1.82589258538881    7.15591249335525
C         5.31811739916622    2.59490249143125    6.72790474462959
C         3.49529355586490    5.06989515272192    6.04362709507906
C         4.56492010128608    5.78142480181006    6.57853544159907
C         5.06177036777435    6.87991353579964    5.90316870469511
C         4.49540346516329    7.27517749405311    4.70021897337489
C         3.42961898394037    6.57104353098460    4.16522475623190
C         2.93179953257428    5.46923422572595    4.83595318930274
C        -1.48940561655689    5.30818306646716    6.33407485869108
C        -1.30225861740393    6.65391392391956    6.03425988686382
C        -2.37148048291737    7.42041059199474    5.60850774154081
C        -3.62391953756765    6.84685420408758    5.46372604030768
C        -3.80667981932939    5.50060728454929    5.73618962418914
C        -2.74382466479764    4.72808751513850    6.16346238714560
C        -0.78114937916003    3.06490962176320    7.98873500109600
C        -1.65209375735188    3.45094860649948    9.00311535186174
C        -2.10984107981475    2.51050380546374    9.90639532458350
C        -1.70223675155565    1.18854420427615    9.80526119003698
C        -0.83684482751006    0.79975083484385    8.79632612250244
C        -0.37797502465281    1.73713049613646    7.88933541788215
H         2.86635272691490    5.09835001689454    8.91319585904622
H         1.75246549000323    3.73202635685371    9.13724259429820
H         0.28621670909007    5.67698304230361    8.80976501951880
H         1.26054916417640    6.21230360920106    7.42348720390322
H         3.19732463258527    2.03660314573265    9.31566168586553
H         5.10347696159693    0.68710703872048   10.06985330471489
H         7.14425491908894    0.54472335710456    8.69316567016837
H         7.26697033652686    1.74791160419859    6.54124731415810
H         5.36103852020397    3.10424723859392    5.77569523540200
H         5.01016117113423    5.46368184154577    7.51226134482474
H         5.89631390331907    7.42932257115493    6.31357890922691
H         4.89224429584006    8.13153239979729    4.17592442588071
H         2.99166222312603    6.87339426226808    3.22597789557761
H         2.10204388530075    4.90133441809049    4.40124692325749
H        -0.32250623229754    7.10327144991545    6.12291774358000
H        -2.22365616344489    8.46580451318648    5.38029909958250
H        -4.45480552402344    7.44762925429092    5.12537203470127
H        -4.77773874168221    5.04798965198385    5.60518467962717
H        -2.87792436064696    3.67248798587266    6.35222829090626
H        -1.97499281514440    4.48148358704654    9.07263396067286
H        -2.78899046688751    2.80748811875022   10.69211803364840
H        -2.06690767208288    0.45879793134626   10.51263233806732
H        -0.52472897443801   -0.23021602830024    8.71126924938781
H         0.29175100797767    1.42441822075424    7.08085732904123

