58
CSD_code = SAYZOI | q = 0 | S = 0 | Stoichiometry = C25H27ClNPPdS2 | MND = 4
N        -1.75155946339791   12.71373937432003   19.22637406645832
P         2.55067763430180    9.37329717792509   17.26325427343759
Cl        1.04800721487592   10.63822737455504   14.77701373919537
Pd        0.63983883475554   10.54516000518095   16.99265734340881
S        -1.41379636646090   11.61130019357350   16.82759470573947
S        -0.07114694453168   10.64557697218679   19.20249053185265
C        -1.14626872860915   11.77508232574902   18.49957453074897
C        -2.71745323453757   13.63567346295824   18.67291533320359
H        -2.74031840849523   13.52030766708997   17.58829462585113
H        -2.39635266329842   14.65555436595910   18.91459649361659
C        -4.09458842921749   13.36551716600128   19.27687316594894
H        -4.41855907822496   12.36280668246908   18.99056070928703
H        -4.81025062332614   14.08218381065886   18.87251038953717
C        -4.03991566536063   13.46867955806234   20.80270193563487
H        -3.75978237355959   14.49390518429656   21.07272085201090
C        -2.96242728132142   12.51612141315720   21.32560660200488
H        -2.85839941793011   12.61602150942494   22.40669215500379
H        -3.24926855979489   11.48574017081557   21.10532942690590
C        -1.61779689929369   12.81010704691942   20.66177284515869
H        -1.29151424479686   13.82663616742103   20.91057319751881
H        -0.85782550475678   12.10197292220902   20.99628694599537
C        -5.39715635926597   13.15356790848127   21.42298871086764
H        -6.15515979511209   13.83818911672902   21.05019248482853
H        -5.35251702343268   13.24576950037835   22.50555628296021
H        -5.70091992831762   12.13845810317557   21.17723286129909
C         2.16796374737039    7.81483073527338   16.40768988068906
C         0.81929458873791    7.47508190856809   16.29507717442754
H         0.05160456423584    8.14894289558385   16.70990352852896
C         0.45204582202507    6.30601335071691   15.65596923882830
H        -0.59145386419560    6.04423822012394   15.56289603597316
C         1.42580550576919    5.47466663747889   15.12300152110718
H         1.13788381974348    4.56621113934048   14.61500596518060
C         2.76498037258504    5.81052918692257   15.23146473763662
H         3.52023691238706    5.16361003895865   14.80973427101465
C         3.14033840348529    6.97803280373886   15.87338360917882
H         4.18410260659951    7.24815622500227   15.95344350045783
C         2.82703542998442    8.87530379179549   18.99252213331076
C         3.01410326587186    9.90924894399805   19.90823742954178
H         3.00855046464408   10.93340271547753   19.54948113474655
C         3.19569292668855    9.62776437264365   21.24762916305459
H         3.34020577045393   10.43047375866465   21.95574298019463
C         3.18184569846540    8.31091512648106   21.68250712684236
H         3.31624949691750    8.08850457873739   22.73080971576760
C         2.98823207029103    7.28169399448662   20.77687779833751
H         2.97333904012174    6.25715982435667   21.11907579026458
C         2.80881651347314    7.55828805547444   19.43187607360178
H         2.65403376135837    6.75537109751448   18.72485213506080
C         4.21869607181965    9.81253538100561   16.68523239499925
C         5.34859620562217    9.57026399402217   17.46183335258137
H         5.24924954045388    9.12853392560998   18.44334072655827
C         6.60170178885196    9.89613397998669   16.97429945472662
H         7.47629092823347    9.70663646518530   17.57977968367856
C         6.73627508506602   10.46196098986200   15.71697726310147
H         7.71724733823350   10.71522773943105   15.34240175033606
C         5.61234990226102   10.70457413531046   14.94344989107700
H         5.71434835596439   11.14741596752254   13.96395808406994
C         4.35519215302811   10.38473280365951   15.42271386814452
H         3.46989902283567   10.57635003758875   14.83166837817852

