46
CSD_code = SEPVEO | q = 0 | S = 0 | Stoichiometry = C16H20Br2N4O3W | MND = 7
W         8.60704351932788   -0.00969604163929    2.97912755376208
Br       10.42385694345434    1.42758043967579    1.68672710931288
Br        6.62390432964140   -0.60776238412815    4.69699200159145
O         9.36478000778019   -2.99574076521731    3.64690809429601
O         9.37235337604834   -2.14767610777775    0.78604379501469
O         6.52212197223144   -0.73387203642512    0.75217046756707
N        10.09503145332504    0.44873181306830    4.71432800451609
N         9.88595552840228    1.36183715973284    5.68298299537814
N         7.94554586723087    2.07382655800584    3.52069750881321
N         8.18195023204038    2.69380232671381    4.69660386175525
C         9.06396144616027   -1.91878120055517    3.28443553002368
C         9.13633089582174   -1.42931442013767    1.69056111106427
C         7.24787881397914   -0.38087578489483    1.57629596593025
C        11.35675058828215    0.04113534191276    4.83450044054802
C        11.96733056965365    0.69831422084872    5.91991814885155
C        10.99815124829158    1.53732609918021    6.43622706949168
C        11.98711959074736   -0.96356909107497    3.94007861186727
C        13.36122185811727    0.53136794786373    6.41739190199537
C        11.06224783394829    2.47391592041558    7.58540439163153
C         8.58604801205639    1.94880332928307    5.86125114551225
C         7.45902506003229    2.99658636343572    2.69177944654409
C         7.38166737855593    4.23843579977500    3.34963857631235
C         7.84869094969938    4.00669820586992    4.62954982602042
C         7.05232762654812    2.70149446376534    1.29466644589253
C         6.89448738648636    5.51336762048926    2.75557632580266
C         7.99571169318192    4.92657615739782    5.78475341575084
H        13.03200510078281   -0.70886628310754    3.77812818077210
H        11.49349953736465   -1.00248000799306    2.96918749415250
H        11.93743671045873   -1.95479950476558    4.39261808876526
H        13.86768365262816   -0.25936462303900    5.87341160999769
H        13.35903689101473    0.27412193978311    7.47552064746372
H        13.92491660899820    1.45505008273373    6.29109800375813
H        12.05727461661829    2.43879430311353    8.01844788678260
H        10.34146535313171    2.20030409118392    8.35595451918347
H        10.86444616829582    3.49808176044184    7.26918842457419
H         7.84669973835026    1.14998602875913    6.04846471078147
H         8.61903491650258    2.62367137834286    6.71656578226387
H         6.65918108854048    3.60021999406566    0.82866677436509
H         6.27618618840960    1.93480851381157    1.28182336061859
H         7.90068929687520    2.35221072293729    0.70410796556455
H         6.95811380840407    6.32532927828617    3.47388783795193
H         5.85675284762452    5.41250589069431    2.44118713863485
H         7.49186592615433    5.77523210316698    1.88377431692684
H         7.71476262815465    5.93202440581134    5.48676575356377
H         9.02737458807788    4.95320882708614    6.13471997548547
H         7.35078015255482    4.62414916311428    6.60987178316018

