37
CSD_code = SETNEN | q = 0 | S = 0 | Stoichiometry = C14H14BrCl2N5Zn | MND = 4
Zn        8.94465443913943    4.05868750741701    3.02554836465414
Cl        9.08824553332870    4.50974002013231    5.22460438134235
Cl        8.98107977656076    2.19002639080084    1.93681475685136
N         7.14858143142365    5.04670700404804    2.51161392061112
N         6.58134829447375    6.12249711807799    3.06085339938124
C         6.20445094329462    4.41549460295088    1.83008380429588
H         6.43615130138217    3.51829504848736    1.29060447592686
C         4.98995720591994    5.08976037274383    1.95167633283407
H         4.04671612111088    4.82103026284932    1.52475059798166
C         5.27266336244804    6.17281491052226    2.75262973351047
H         4.62893614689835    6.94380411740861    3.12797888327166
C         7.31347056529164    7.04041041838212    3.91996666717145
H         6.57800936016818    7.75264031263615    4.30975405794380
H         7.73139063817006    6.44819730477394    4.74479322165510
C         9.74011953199341    7.29935445430695    3.50658301463094
H         9.72958648438568    6.52009508732225    4.27769040445133
H        10.39006492462622    8.11536946627462    3.83601342458954
N        10.32350621494653    6.72165414028879    2.31369648108519
N        10.15837104941974    5.43036167554113    2.02035279328961
C        11.04155740897586    7.33158632124447    1.35519156223582
H        11.28799030761508    8.37238913861837    1.40261745484836
C        11.35429820889512    6.38660965006652    0.40402016994225
H        11.92143601428150    6.52494714497163   -0.49238034229987
C        10.77250425573115    5.20774863414274    0.87038948301101
H        10.77086548098203    4.22668945691058    0.43813424566935
N         8.39055564260459    7.75186871182978    3.28956943799855
C         8.13905721407084    8.90155592759927    2.54110410967460
C         6.89779639178551    9.09564570790588    1.92778335736308
H         6.13132143687227    8.34387236964326    1.99413777955131
C         6.62436366326670   10.23708996511701    1.20012382810150
H         5.65952031689763   10.36081542007940    0.73326363202906
C         7.59453436997239   11.21326271426045    1.06419371753146
Br        7.22797812180677   12.78560853350658    0.05356214721783
C         8.83240967745128   11.04965907769330    1.66018529723936
H         9.58644471432825   11.81541221271830    1.56277232937490
C         9.09851851090572    9.90804348639613    2.38943791959207
H        10.06314493857532    9.83335531233136    2.86318515544176

