55
CSD_code = SIBCAJ | q = 0 | S = 0 | Stoichiometry = C22H25BrN4O2Ru | MND = 6
Ru        9.77266530189241    3.18034892782250   12.67870646706636
Br        9.96890446233885    2.17646477671980   10.33599490939501
C        10.76087479281510    5.67089374093540   11.41585322558284
C        11.14841630544353    4.51859509373985   12.08793302272012
C        11.59979734864965    2.21930222247924   13.09350817167172
C        12.50204749889266    4.22237876207274   12.18252493627539
C         8.62659005441239    4.70137993819128   11.79916164487951
C        11.69655360667113    6.55775799533400   10.90607391208322
H        11.40178416974059    7.45482128135442   10.38233455316948
C        13.04265210507646    6.25619437177314   11.06711695726111
H        13.78227094084152    6.93842431473287   10.67625531194908
C        13.46548961469239    5.08702382198941   11.68603037802379
H        14.51952958960069    4.86365245742206   11.75727891093990
C        13.44961286420197    1.03894155846006   13.47817961983879
H        14.02865266811619    0.18882996486339   13.77505281577937
N         7.35014527748027    4.99202635200035   11.50021034075365
N        12.69787175186591    2.95540742726452   12.76342533757033
N         9.35940317444484    5.73562004895950   11.30302390946792
N        12.07904845770532    1.04117718890942   13.52457057256332
C         8.48501797942130    1.86305844000803   13.03980286216535
C         9.66634503773698    3.97387262052258   14.32465631591565
O         7.68067732396110    1.06260958931127   13.23339874960969
O         9.58108283481479    4.49659579504750   15.34802712141622
C         7.27936953583933    6.18815989859049   10.83494466186761
H         6.34974888714194    6.60224304877373   10.50250451359449
C         8.54499352042353    6.65536510995433   10.70654049311064
H         8.91238107328621    7.54611652481266   10.24096581317401
C        13.83959621255864    2.24290055901829   12.99533062878935
H        14.81833348630098    2.62776499698251   12.79733574378556
C         6.21430623763858    4.17956417309562   11.86014958621366
H         6.43340525515636    3.14038119735971   11.59390109678795
H         5.35482190854679    4.51711733926803   11.27600443216169
C        11.29079869082960   -0.07084325370911   13.99068077506478
H        11.71918887098613   -0.99202085388146   13.58514105406797
H        10.27791637245505    0.04711312623376   13.59494778793428
C        11.24936138908535   -0.13947452355621   15.51934517550363
H        10.71016221311594   -1.04443625110597   15.80425031669858
H        12.26786987282495   -0.21952746679342   15.90778991021317
C        10.56302751863635    1.07680821011928   16.13584143195900
H         9.55613841035289    1.17050664239274   15.72082592434476
H        11.11363442105301    1.98255155814917   15.86873246310980
C         5.91113704759564    4.27412600265691   13.35795794049081
H         5.10334282438459    3.57860882707882   13.59020535211158
H         6.79882818258303    3.95799724773290   13.91483024116808
C         5.26922987968410    5.74938160988878   15.29340455827857
H         4.46777335372569    5.07134977621742   15.57774865030528
H         4.98993974851472    6.75689542742690   15.59166043563788
H         6.16744076222819    5.46589343881038   15.83719227617461
C        10.47987968043418    0.96895660724547   17.65281785659674
H         9.91014115191828    0.08897729348290   17.94304960774343
H         9.99142029127524    1.84706408820584   18.06682825748829
H        11.47456877473942    0.89247937600056   18.08707171568226
C         5.51811656292228    5.68393575734099   13.79209083641927
H         4.61608797064323    5.99260695565972   13.25756841796591
H         6.31770673229743    6.38206086661358   13.53272199944220

