59
CSD_code = SISHEH | q = 0 | S = 0 | Stoichiometry = C21H34ClNPRh | MND = 6
Rh        2.06375657516708    2.60889707528475    1.99461692297405
Cl        4.09395935760366    1.60126508444208    2.09306875335752
P         3.86481227142750    3.66785981115664   -0.34929679473550
C         1.00289520407655    0.81936870293397    2.41944721715902
C         1.34870267102847    1.45897803812518    3.60881129951111
C         0.39351445437125    2.26707828513428    4.45848048179537
C        -0.41909556002639    3.29352452129217    3.64602291797450
C         0.33068806342318    3.77295858561510    2.42132518583508
C         0.20757941972427    3.17558888265031    1.16984047557644
C        -0.65202523191930    1.96420266292197    0.88073099929938
C        -0.40746847244465    0.80660595457572    1.86629738137388
C         3.42443453215281    5.27588742292452    1.73516002110719
C         3.38800185174621    5.11639136984968    3.12418794506814
C         3.68297352671754    6.16255275299996    3.97163114599747
C         4.02846561371648    7.41418127025730    3.47361790612778
C         4.06275538389548    7.57698291566445    2.09691137074939
C         3.76597454380946    6.53321289677656    1.24007923511892
C         4.36139213129358    8.54070756901520    4.40535792722856
C         3.91083148916695    4.86544532148212   -1.77119306616906
C         2.53229306742063    5.43766546225614   -2.06624650804927
C         5.66083930839024    3.24409849695765   -0.17784230101661
C         6.32441616021776    4.13640370128183    0.86213550200137
C         2.94453188537259    2.23608148212081   -1.02309185729756
C         3.67163043167650    1.49806480050403   -2.13718689510474
N         3.04722448600761    4.20155417351550    0.92007883538119
H         1.62165269807161   -0.02383755967241    2.11071755543977
H         2.19620581289369    1.05847966855260    4.16727637655380
H         0.61380970742705    4.82409528504705    2.44467940989359
H         0.36943454326847    3.81149550692177    0.29837839484813
H         3.13854240429211    4.13444370626863    3.53261640383307
H         3.65149803036390    6.00647891584879    5.04083375752814
H         4.32229714058540    8.54062413480862    1.67973400199935
H         3.78679573581495    6.70595392767214    0.17538075634576
H         0.97933322192776    2.79660420778219    5.21395606280854
H        -0.27969905407750    1.58599728899130    4.99105127487689
H        -1.37303033054010    2.86412903665866    3.33549670954236
H        -0.64384379812597    4.14993546584395    4.28485999189082
H        -1.70832714076351    2.25625576673439    0.89598850961396
H        -0.42835160805884    1.62085704114019   -0.13273269231037
H        -1.11366611695786    0.85660820020090    2.69621366988223
H        -0.58170626479840   -0.14084303857268    1.35214048622025
H         5.29725736361066    8.33671164152599    4.92622278725596
H         3.58233058793415    8.66009041748907    5.15697796367420
H         4.46824072568897    9.47652567412291    3.86192892172094
H         4.31125018256224    4.34781655278190   -2.64467722764053
H         4.61717384961030    5.65991253828494   -1.51864430311113
H         1.89146138629380    4.68924037468642   -2.52714476461642
H         2.60178523995637    6.28593664922495   -2.74501276085701
H         2.05662430108704    5.76951267807111   -1.14409882324960
H         5.73016045966769    2.20425527649341    0.14323587571667
H         6.13551415944345    3.35729727311770   -1.15549765556889
H         7.38537783664958    3.90536939899634    0.93440240527491
H         6.21368923966477    5.19169001852186    0.61558941038583
H         5.86822273297495    3.96015711297813    1.83410614807530
H         2.74395586925630    1.56181554817744   -0.17900486838148
H         1.98653971112884    2.63074288325463   -1.37666897630756
H         3.87611840558343    2.14940202639501   -2.98514483222145
H         4.61235302254199    1.08953218277152   -1.77706018530141
H         3.05861678101093    0.67105695915146   -2.49064388507378

