50
CSD_code = SISMIQ | q = 1 | S = 0 | Stoichiometry = C15H21ClN9O3Pt(1+) | MND = 4
Pt        0.73823377764930    0.77957590619421    5.18363881591427
Cl        0.80818672689662    3.05430152512178    5.32504021253259
O         0.53552790390769   -0.17806014042688    2.38133175975289
N         2.44358696500307    0.50472583380573    1.34576378562742
N         2.08092087635469    0.85240714073568    3.65055766948059
N         3.66624642085471    1.84586249341204    4.97442769852304
H         2.93935304226437    1.93671824322855    5.68193303687563
H         4.51489962768580    2.37623961491734    5.07430718191497
C         1.94804699487142    0.05660555711150    0.06183468351940
H         1.96270753767276    0.87738032741770   -0.65460539205446
H         0.92423819366735   -0.28586400775823    0.20128797016513
H         2.55802734817680   -0.76452289712861   -0.31565307639119
C         1.61879220239002    0.36790438356415    2.46298619927323
C         3.28344654052815    1.41683453278093    3.77628395850988
C         4.13827657702630    1.50863629663071    2.64054393245051
H         5.11412340738135    1.95086449589542    2.72907213568815
C         3.66634123244489    1.05925096338350    1.45252420003568
H         4.24320236896339    1.12654683452037    0.54178965484020
O        -2.19606527518520    0.96497410391827    5.20395725719640
N        -2.66524547814219    1.77842550549420    7.27226526228835
N        -0.55153485362243    0.88557938361199    6.73723680569636
N         1.13292710037392    0.75446426847281    8.27967423982985
H         1.70708746887382    0.28288073892467    7.58055204750404
H         1.49782086242838    0.90238360306185    9.20413180012813
C        -3.98278923262257    2.15101857980076    6.80789543340397
H        -4.56300379467754    1.25496890231271    6.58262676232912
H        -3.88756761264322    2.72885394203125    5.88822767646220
H        -4.49065868340721    2.73994885824320    7.56639094263632
C        -1.81365549557020    1.20043333478997    6.33656698804860
C        -0.11783880284344    1.09593731256994    7.98133479388910
C        -1.00018789729024    1.66758569549715    8.93925349049742
H        -0.66908505584899    1.85311282439079    9.94504493332468
C        -2.24831749874124    2.01104431355654    8.52921424870974
H        -2.95654434790636    2.48075956678763    9.19573833105780
O         2.53864077221365   -1.09192451132778    6.38972781266461
N         2.05946480608863   -3.16485576206180    5.57000804291704
N         0.69137412271054   -1.30501311320976    5.13828159366685
N        -1.29646248550157   -1.49394904162139    4.02599426581971
H        -1.43873541044063   -0.49021944652671    4.15989869939337
H        -1.91614890335776   -1.99143616275880    3.41052257222977
C         3.23981990568329   -3.73148687910357    6.18705969455753
H         3.78025024173101   -2.92438844714006    6.67799607409380
H         3.87789230320592   -4.19192026626977    5.43315462045440
H         2.95718608524151   -4.48092132257054    6.92655604419425
C         1.79899214120940   -1.81142170329198    5.72618900033096
C        -0.18431002982990   -2.05202494752585    4.46009527499817
C         0.09929979722514   -3.44110507773639    4.27881278369579
H        -0.56662377121893   -4.06201411682727    3.70683899306507
C         1.22486985178657   -3.93973000156637    4.84088595536218
H         1.50619142630927   -4.97796723731069    4.74380313310333

