25
CSD_code = SIVCUW | q = 0 | S = 0 | Stoichiometry = C8H9Br5NOTa | MND = 6
Ta        2.30847570990697    5.22302893158371    1.82736382151228
Br        3.05928804134880    7.22218160696658    3.17476441921912
Br        1.11051577637820    4.37676328315669    3.89713246718390
Br        1.15167093393722    3.42068548387751    0.48737323702639
Br        3.05140371357285    6.34646510839060   -0.28826421351331
Br        4.34424795843428    3.94884687403805    2.17209155564509
O         0.51976755800723    6.29451182934108    1.53622323509533
C        -0.65839772773249    6.59961616480451    1.83222740365470
C        -1.70644767219942    5.54646411079805    1.96372381030181
H        -1.57520499022949    4.79909616552779    1.18118913429602
H        -2.70957309161724    5.95836710603466    1.92453044632410
H        -1.56292273345027    5.03275959820376    2.91761331325120
N        -0.99002547234905    7.86341121712513    2.06111020497733
H        -1.91965765802905    8.06515190476238    2.40596947575020
C        -0.07294721222744    8.95214980909578    2.02322460436586
C         0.83571200187314    9.07345809274949    0.98078439167366
H         0.82772480407830    8.36976999044394    0.16231339503616
C         1.75335987338702   10.10890217905586    0.99620708069330
H         2.46956240679371   10.19070648669431    0.19406084814470
C         1.75533369413385   11.02206555282677    2.03664286300809
H         2.48041845953387   11.82032514688486    2.05127678873191
C         0.82706794963350   10.91204165638490    3.05915463640994
H         0.82446616466163   11.62459660742947    3.86903398162575
C        -0.09231420569328    9.87940537278136    3.05656906983358
H        -0.80622428215271    9.77712972104317    3.86028402975274

