42
CSD_code = SODYIU | q = 0 | S = 0 | Stoichiometry = C19H18Cl2N2Pd | MND = 4
Pd        7.82851403539176   16.71698604477450    9.03296186626802
Cl        7.47160155746617   16.39303926123248   11.21977572474541
Cl        8.79081898821974   18.71194996276036    9.34895831006217
N         6.97114106043993   14.99575565428298    8.48920297404179
C         6.74645096049880   14.91565818742272    7.17250527656182
C         6.24716866283726   13.75965612407684    6.59187396420248
H         6.05916493819250   13.72848399369848    5.52972598377470
C         6.00168485303470   12.65374763202732    7.38948213220464
H         5.61755843899377   11.74292992627203    6.95670676537958
C         6.26323662005788   12.74342425490612    8.74751752131972
H         6.09386233524792   11.90654080843080    9.40494892414541
C         6.74467638904781   13.93582621341365    9.25744757051123
H         6.94771582226653   14.07415817212900   10.31265426513525
C         7.01337242043643   16.16132846275849    6.35016491714400
H         7.26265293243604   15.85647972612236    5.31923828962954
N         8.11728350833383   16.93535556222747    6.92876986726856
H         8.02129875144702   17.92112578590949    6.67735533245931
C         5.72591221751942   16.97065398485618    6.30697029369975
C         5.28991126603398   17.71832666908187    7.39824609731350
H         5.87001430062603   17.76814915831987    8.33365808900766
C         4.10251249049689   18.42676093918991    7.32360988629365
H         3.77767911207770   19.00668567842261    8.17380331198541
C         3.33604317076867   18.39365564365837    6.17083567515668
H         2.41161472044580   18.94816010866122    6.11765660063056
C         3.76110801395983   17.64657168635066    5.08616039985119
H         3.17192786372908   17.61458847701970    4.18195001635009
C         4.94819601709915   16.93938810666385    5.15531840517546
H         5.27594695555912   16.36161756938607    4.30223305822721
C         9.45839441703732   16.46727444882411    6.54427090430691
H         9.50665454080254   16.27674424318412    5.46155356947871
H        10.16445088932890   17.26301733338709    6.79957675731158
C         9.79743363842813   15.21745248719503    7.32030930336812
C        10.21530011544146   15.33650329324785    8.65202525633463
H        10.47662240724086   16.31438807812768    9.06250286605781
C        10.38464051425894   14.19779841644200    9.42680713543191
H        10.70170556184883   14.29337276951232   10.45434224635013
C        10.14930721502590   12.94359035519372    8.88302156934434
H        10.26980743936859   12.06009712735254    9.49157282660279
C         9.77916943785421   12.82212578837906    7.55566146784390
H         9.61741142427458   11.84582941851392    7.12300016888212
C         9.60050065248839   13.95603170512892    6.77819909540475
H         9.30123334393654   13.85447074145411    5.74372531473692

