47
CSD_code = SODYUH | q = 0 | S = 0 | Stoichiometry = C20H18Cl2N4O2Zn | MND = 4
Zn       -3.37716132504107    2.39339535605501   15.88596075042039
Cl       -4.66361236838462    4.07027011266860   16.54415842644227
Cl       -1.37863130973292    1.66390686145678   16.40653230176369
N        -5.56943759395126   -0.41923072103505   13.75413613702473
N        -4.58815906258253    0.71547240984143   15.39438799942187
N        -3.76151151479220    2.68355135946141   13.82000769890106
N        -3.60264993750851   -0.24968550997913   11.97373781391210
O        -2.44843173580038    4.44209761670905   13.93144936624519
O        -1.38878982573302    0.29223093129289   11.72377265220550
C        -5.73081639606242   -3.10333674964921   16.29973378630644
H        -6.04782373367794   -4.11626015448156   16.49676732677963
C        -5.94268435726250   -2.56483526088150   15.04727089777244
H        -6.42148109711735   -3.14099175357817   14.26987453441179
C        -5.51605311710115   -1.25967379991733   14.84209983570614
C        -4.90001152062388   -0.52044842245807   15.87653577468344
C        -4.69450698386461   -1.07807945934991   17.13454952664350
H        -4.21569666101397   -0.50400549947003   17.91125883341901
C        -5.11656471196159   -2.37499341248626   17.32411465078290
H        -4.97324572334436   -2.84736255950658   18.28366928573343
C        -4.98834605407823    0.74814445713570   14.13895948851025
C        -4.77372653971018    1.95393688386138   13.35262805760930
C        -5.53464658386048    2.39227581449666   12.27694176013591
H        -6.38392991693084    1.83603329326827   11.92138390656932
C        -5.19564199887163    3.60402887492984   11.68945801611437
H        -5.76802268776799    3.96992910775745   10.85027617471513
C        -4.14629999930803    4.35502405684659   12.18046865551798
H        -3.88983109892597    5.30179001587997   11.73576004978356
C        -3.45103150447845    3.85725596845385   13.28932641341732
C        -2.07394892367757    5.76273977371921   13.59480347384048
H        -1.68083169169340    5.81557823709469   12.57516854509795
H        -1.29091444385699    6.02988970781187   14.30124639351126
H        -2.91625145020962    6.44992326318699   13.70923231966477
C        -5.90050863941468   -0.81412952848454   12.41085856299999
H        -6.85638947856311   -0.37860809262911   12.09843751239232
H        -6.01328640541942   -1.90292720783888   12.40595832031440
C        -4.80440729880339   -0.42855492436733   11.43847544135118
C        -5.05564013614166   -0.27496577600638   10.08850684578537
H        -6.04259721169296   -0.43745893778814    9.68544191470669
C        -3.99526580723192    0.09836496386310    9.26501294296484
H        -4.15473147351799    0.23153914251848    8.20538069078016
C        -2.75041751852825    0.30209693484802    9.81143462846030
H        -1.89902139600632    0.59805064913647    9.22225856547134
C        -2.59413496437879    0.10759375922902   11.19456232075070
C        -1.25178626195361    0.08148723505866   13.12300457678118
H        -1.81446167585359    0.82489199500783   13.68955693860863
H        -0.19187214805624    0.18313365738517   13.34009153359580
H        -1.60318771551391   -0.91378466907129   13.39914835197761

