16
CSD_code = SOZDEQ | q = 0 | S = 0 | Stoichiometry = C6H5AuCl3P | MND = 2
Au        4.30709123872050    4.02233846049325    3.35037711680559
P         4.27792521666684    2.05928596000192    2.23196088265292
Cl        4.33066290321115    5.89763962738942    4.58415514609586
Cl        2.77453535493501    1.80677872215479    0.96883002562060
Cl        5.86090926997942    1.68490030383368    1.10571804814079
C         4.16789300915931    0.57483639162080    3.27623748727300
C         4.18787421162678   -0.70046625453558    2.71992440282142
H         4.27378487298951   -0.82128517188901    1.64898734463947
C         4.09790290796770   -1.80260181568716    3.54835247382811
H         4.11382416029488   -2.79532478886769    3.12462438157023
C         3.98747619099752   -1.63405674020727    4.92106295052466
H         3.91735651027467   -2.49877658433669    5.56333564344473
C         3.96694297804619   -0.36294471746714    5.47138349922596
H         3.88074466684762   -0.23390816678651    6.53928825206768
C         4.05774974029630    0.74686069030996    4.64930138602766
H         4.04472676798620    1.74762408397059    5.06186095926246

