60
CSD_code = SUJCIJ | q = 0 | S = 0 | Stoichiometry = C19H37ClP2Pt | MND = 4
Pt        2.63975299000402    2.69560729505031    3.51671592979076
Cl        2.48066735240490    0.29476286632189    3.32835074906843
P         0.51910165436318    2.60349890669529    4.34669381161601
P         4.77024134103536    2.48076949097345    2.74034748540745
C        -0.30385385647570    4.19570172426157    4.80022817593443
C        -1.74649758803432    4.10931130558179    5.27835705922852
C        -0.73020401857895    1.68828870068190    3.35563876364491
C        -0.96746994220132    2.34529949455119    2.00221007807130
C         0.53945174196651    1.63500184239611    5.90945568266902
C         1.73765852707396    2.05607592510903    6.75121696402409
C         4.90642617767225    1.44333101957015    1.22765756689674
C         3.89183353154898    1.88096304292516    0.17966554967792
C         5.87053411768531    1.57284716577140    3.89957261733099
C         6.00877028207165    2.31408605524946    5.22301999478637
C         5.68587394471179    4.03194695254846    2.32570522162921
C         7.14903811148033    3.88433172787023    1.93261232371122
C         2.78120286004211    4.70462195354829    3.75185562669759
C         3.25360381634091    5.23670670257206    4.94736178895483
C         3.35762796630039    6.60478654429399    5.13814122830026
C         2.98600151256818    7.47019113365374    4.12462450968089
C         2.51402843093023    6.95707983801049    2.93054550698218
C         2.40873192117230    5.58537772337549    2.73583041268119
C         1.88978541853090    5.05863377334096    1.42640763549376
H        -0.23327090721365    4.84548512847468    3.92413650577327
H         0.32688632505881    4.64895007036520    5.57013322113382
H        -2.08912130195176    5.09477115013912    5.58930300714927
H        -1.84463177962937    3.43817471050084    6.12870134269282
H        -2.40457044554705    3.76093116723027    4.48613529574811
H        -1.65722652598424    1.60292671183362    3.92958133137886
H        -0.32043163889613    0.68519397712380    3.21095248693971
H        -1.68426376023609    1.77136877721254    1.41760347391430
H        -0.03100000760518    2.38904788804950    1.44832440906198
H        -1.34679415677514    3.35927276886984    2.11579909112143
H         0.64590707872539    0.58607666777247    5.62131375627838
H        -0.39915854124473    1.75296103989760    6.45683851085377
H         1.84094687165285    1.42448804102905    7.63169895233045
H         1.64615902118881    3.09185238910638    7.07428438113455
H         2.64268304478345    1.95771316522079    6.14442329302767
H         4.68847281933519    0.41849591597869    1.53795075193738
H         5.92704819421862    1.47882238001267    0.83761550911922
H         3.94161096957695    1.24013040095239   -0.69868374352365
H         4.06310710408580    2.91012757018602   -0.13136080394026
H         2.88959701363533    1.80437582098446    0.60293939110002
H         6.84342643337919    1.39735235835398    3.43205095743710
H         5.39082718506747    0.60378026281855    4.06499749401832
H         6.56056212315586    1.71571731633398    5.94578086439045
H         5.01877480643948    2.52078133897476    5.62911128971516
H         6.52654534429345    3.26220677058700    5.09168690912706
H         5.59027631257333    4.68642716492275    3.19624720395580
H         5.12275480095682    4.50847979565671    1.51856735814533
H         7.56327873048495    4.86191660686964    1.69180297655635
H         7.26460606100969    3.24870007916905    1.05774672357491
H         7.73555856096859    3.46370063119076    2.74564952050822
H         3.55031589705561    4.57464473719025    5.75297502860948
H         3.72844896851519    6.99406492501545    6.07647697695795
H         3.06376343447884    8.53904810792651    4.26366468992455
H         2.22168963950583    7.62878869292520    2.13396043228209
H         2.50732670817106    5.40284313740536    0.59753618262070
H         0.87144168010654    5.40195060508031    1.24657054527522
H         1.89664764385530    3.96411054423362    1.44347000146097

