36
CSD_code = SUPVIJ | q = 0 | S = 0 | Stoichiometry = C13H18Cl2N2Ti | MND = 9
Ti        6.70333395400439    1.31449105507347    3.06314596938514
Cl        8.43287594498670    2.10761041976730    4.16116121551441
Cl        7.41907301140389    2.11489690606220    1.15036526822723
N         7.23998856536224   -0.49400064240016    3.56898539245860
N         6.77183332801484   -0.49071872856621    2.31063524838688
C         5.45083345331520    2.89967357721711    4.12126011476825
C         5.28017393550956    1.66487434761177    4.81553596034234
C         4.64189617160178    0.74791594179654    3.93337125168908
C         4.44827892952107    1.40470924286289    2.68495242229358
C         4.93318673493378    2.74002975542720    2.80728291718085
C         5.94028339740206    4.18450233989590    4.71940713246011
C         5.62751509123714    1.43691655395400    6.25680659384606
C         4.16134700944210   -0.62947343023469    4.28618599992778
C         3.76079706822535    0.85495512712675    1.47034928506414
C         4.75484741363863    3.82886178089714    1.79255081603108
C         8.09451600586337   -1.50710827615964    3.70756733791155
C         8.16752530971163   -2.20100354700080    2.50366558194135
C         7.32681787276471   -1.50133790121571    1.64312196000172
H         6.59729000775522    3.99235460423853    5.56533314219910
H         6.49075885205599    4.77120514575306    3.98384516118887
H         5.09218574500681    4.77966748660122    5.06702306802068
H         5.56144672487931    0.38139139928371    6.51213975020806
H         6.64321908883324    1.77850020620138    6.46145839597789
H         4.94255414959983    1.99119528997649    6.90195594303341
H         3.13663431534892   -0.58202050143617    4.66198500830303
H         4.17419917559598   -1.28384490701878    3.41520763726253
H         4.78730241426969   -1.07744961579945    5.05671401367779
H         2.76708396753349    1.29613097286006    1.36694247201913
H         4.33358465856402    1.08876173447977    0.57162521669698
H         3.65095816777454   -0.22531186799436    1.53811696867631
H         3.79468752796998    4.32647029625504    1.95092207217049
H         5.54440476367008    4.57424216961662    1.87623532498122
H         4.77084766892610    3.42550809649568    0.78169266167482
H         8.59096878730397   -1.69794782332393    4.64190044605871
H         8.75683479173965   -3.06796797718350    2.28205443401349
H         7.09261599623313   -1.68677923112546    0.61039781640188

