38
CSD_code = TACLEQ | q = 0 | S = 0 | Stoichiometry = C18H11BrN3O4Re | MND = 6
C         2.64803137081367    5.85998930071107    6.08593969268118
H         3.15364656081892    6.56667710412045    5.44015206570198
C         2.75363933041946    5.97100398162173    7.45832337267467
H         3.33545154898457    6.76812451626277    7.89129018612240
C         2.09552472960070    5.04315701634952    8.25247933352117
H         2.14997288080706    5.09462487040672    9.32879397620091
C         1.36769212462607    4.04602534627009    7.63401662194336
H         0.86140848985244    3.30722596838381    8.23224593491135
C         1.29443372032621    4.00333059567989    6.24233840955474
C         0.55487605605505    2.96310758617760    5.51436534915934
C        -0.26862919885385    2.04649640711787    6.15917296019634
H        -0.43438336806939    2.10254289143182    7.22358611942613
C        -0.91647588814560    1.06908176560055    5.41358433935950
C        -0.67235416497163    1.02003778122995    4.04311288592635
H        -1.12453836135415    0.24292710720720    3.45070119438925
C         0.15072271441801    1.97530016066637    3.46818202102250
C         0.44227880146248    1.90513385018459    2.02250372087548
C        -0.53722958267160    1.56879014363303    1.09206749101999
H        -1.55570516368481    1.39650645285572    1.40307568534225
C        -0.17973053623613    1.50816073199635   -0.24451077293005
H        -0.91816532952353    1.26887545532918   -0.99534708851830
C         1.13479740638511    1.76376907974897   -0.60098598469964
H         1.45121833771956    1.72107273080038   -1.63088578954684
C         2.03552862369612    2.09301792238099    0.40151902275400
H         3.07161500225585    2.31184442179552    0.18164611690128
C         2.06325779106554    6.70959360412919    3.03866614939419
C         3.20399120185270    4.12134541829614    2.89606050667813
C         0.76762195044822    4.79770154807425    1.58177422015887
O        -1.74334741636069    0.16086621764043    5.95651648237857
H        -1.86238361106792    0.31854011145215    6.90213230922738
O         2.36940620132972    7.80529475839627    2.88787302598267
O         4.22230056060270    3.68808058326802    2.60299452970968
O         0.25273595997146    4.76611460685215    0.55763740318253
N         1.93579378796267    4.91078529063686    5.48043110811452
N         0.72900585093028    2.94575791659988    4.18262838593921
N         1.69986308364230    2.17284719297609    1.67481049696899
Br       -0.86049524389436    5.66322281196428    4.12912845526239
Re        1.48932377878724    4.88572675175488    3.39318006302035

