57
CSD_code = TALZOW | q = 0 | S = 0 | Stoichiometry = C28H22BrMnO3P2 | MND = 6
Br        0.41362797598692    2.49844728019953   15.01831113022302
Mn        1.35160084108840    2.64733709700124   12.75539874161256
P        -0.49058292930477    4.00803571232151   12.50713573663202
P         1.90985170553037    4.71302333293862   13.62411869185110
O         2.18507159497517    3.12898768430157    9.99950221668428
O         0.12752773255990    0.14290141506562   11.84194361328111
O         3.82257797436657    1.20047512656558   13.39886964928521
C         1.88262465642135    2.95815179228786   11.09770877108054
C         0.59062171438056    1.12268741007573   12.22166677431694
C         2.85375361023550    1.77715242529107   13.17503589513832
C         0.18058450544196    5.38083752833938   13.56574382849675
C        -2.17196979899482    3.72840744045813   13.11790194229283
C        -2.64049513982539    2.43789258583208   13.32586395109768
C        -3.93170622829507    2.24437900186190   13.78323125535418
C        -4.74944459099687    3.33431167388100   14.02985575239428
C        -4.28268545423885    4.62273255797104   13.81644944120222
C        -2.99529224064158    4.82504190507259   13.35895821645027
C        -0.78999499729946    4.83338850436015   10.91532343515831
C         0.18599947019894    5.67155729160209   10.38204615375931
C         0.01171747656706    6.23258892543153    9.13195623043323
C        -1.12862885552223    5.94779073457586    8.39780171410546
C        -2.09044271682931    5.09435318473268    8.91311131021235
C        -1.92220176446739    4.53071427571370   10.16451794084256
C         2.91295026104069    5.94650010365425   12.72782161745866
C         3.92041981696684    5.48081900364077   11.89040903158559
C         4.73680787628887    6.37637494587518   11.22345174512734
C         4.55320507082905    7.73802219157209   11.39706111738267
C         3.56280721267084    8.20526564996591   12.24764837416558
C         2.74651106642529    7.31478858163196   12.91854597226067
C         2.54313278835063    5.01827815537817   15.29773093002750
C         2.03282166615790    6.00866994260956   16.12715381284987
C         2.59494156192245    6.20642611178352   17.37515448053492
C         3.66056719647252    5.42685111822407   17.79314025654329
C         4.17230782829975    4.44251380333407   16.96316583192110
C         3.61606541865121    4.23824570983991   15.71540130589585
H         0.08147359730199    6.37376522256773   13.11792609115843
H        -0.29011361788132    5.33813647658911   14.55498242926476
H        -1.99058728460778    1.59207543968425   13.14375069421662
H        -4.29608935829275    1.24263723910315   13.95251596352704
H        -5.75509852699637    3.18220725326682   14.39241548248019
H        -4.92425166331388    5.47026585233259   14.00890105856378
H        -2.62532555128729    5.82717448666793   13.18131095914599
H         1.09017023332546    5.87995743188930   10.94337017716403
H         0.77095672179699    6.88579294970604    8.72738999227774
H        -1.26218903441606    6.38373128143450    7.41906078720390
H        -2.97293000272761    4.86155676746291    8.33567002430342
H        -2.66791462754361    3.85694452207895   10.56489292521793
H         4.05290700696070    4.41217322774799   11.76290955763793
H         5.51338778572557    6.01173035955783   10.56796371982857
H         5.18584007523578    8.43903083127643   10.87335165684871
H         3.42892808086226    9.26773556907532   12.38992931131059
H         1.98281744118843    7.68210890249083   13.59124742441968
H         1.19579789682570    6.61689037211488   15.81247125223529
H         2.19485459259706    6.96988107602227   18.02619133742184
H         4.08955225738106    5.58345561734460   18.77148671879962
H         4.99909223295041    3.83068845782746   17.29113003638779
H         3.99776943950449    3.46301046037555   15.06179553293704

