27
CSD_code = TAYPOY | q = -1 | S = 0 | Stoichiometry = C10H10Br4N2Tc(1-) | MND = 6
Tc       20.83969727214830   -4.57239601136768    8.64086107792313
Br       18.31335157415827   -4.55219131015693    8.70323499226437
Br       20.93107198644660   -6.06373094134162   10.67899616687402
N        20.88312766497087   -2.87694536911485    9.88051261815620
C        20.11400894617790   -2.78578797663900   10.97372896112638
H        19.46336402601767   -3.62152848449778   11.18768370281236
C        21.68589117941390   -1.83680021176663    9.61860632337905
H        22.30644441587030   -1.90519115480294    8.73687389947381
C        20.11846351643920   -1.69488960983365   11.81724963135986
H        19.47143791295895   -1.69395242125048   12.68078286603677
C        21.75150432463588   -0.70936435102085   10.40987921426146
H        22.42379894962161    0.08849357203605   10.13526607318285
C        20.95398001053695   -0.62363004713429   11.54078259755489
H        20.98254226265627    0.24471441132781   12.18224494423515
Br       23.36588100973125   -4.59534376148389    8.58197075425038
Br       20.74709391142946   -3.08176046001529    6.60352159022779
N        20.79403227447366   -6.26868062150681    7.40240334822111
C        21.56348083702871   -6.36000124045385    6.30944138268175
H        22.21417953405306   -5.52429427223919    6.09555018627175
C        21.55947642520219   -7.45111351356952    5.46620380957146
H        22.20643986187475   -7.45194793927686    4.60262567439267
C        20.72413277681635   -8.52249221087659    5.74274645379447
C        19.92653141705924   -8.43676390325289    6.87359764480981
C        19.99169945959711   -7.30910077206174    7.66460137883217
H        19.37124655863187   -7.24079583730077    8.54640626309050
H        19.25425891965373   -9.23466676248976    7.14816878161789
H        20.69556297239598   -9.39083879990998    5.10125966359790

