66
CSD_code = TEVMOY | q = 0 | S = 0 | Stoichiometry = C29H31BrN4Pd | MND = 4
Pd        3.04220810335976    1.75476632381344    3.64354591175754
Br        1.17755858734463    0.81950392572774    5.00155808721220
N         4.42125238978665    0.54881901792744    4.51032383024589
N         5.95137296926797   -1.21363070361909    4.25042956655100
H         5.75006135552332   -1.50897145871851    5.19644812996974
N         5.38975118740342    0.10516941780089    2.44987538576727
H         6.00013172187645   -0.55082230708538    1.98209748494761
N         1.68507918984116    2.84598546411813    2.70139243858054
C         5.22323963526793   -0.15150768848026    3.77920228663113
C         4.28452604965757    0.31481094900599    5.89240570485009
C         3.88678107363144   -0.92895176590077    6.38142060091681
H         3.62757076199483   -1.71585915106462    5.68560691912565
C         3.73920268315859   -1.13173701481668    7.74067707958044
H         3.41585198079415   -2.09524212845440    8.10463031682032
C         3.98740854125128   -0.09652750329937    8.62394320481458
H         3.87000216144330   -0.24940937718319    9.68605921860341
C         4.35921553074126    1.14581322400528    8.14067124845980
H         4.52678576301242    1.96103375261336    8.83022524169086
C         4.51212664918898    1.37424858070307    6.78207440492833
C         4.88661800476912    2.72668750582860    6.25492884402479
H         4.78329825383131    3.48416939358402    7.02783164635474
H         4.23393529365861    2.97974593734608    5.39899856351245
H         5.91672462510484    2.73314488997796    5.89339400179539
C         7.20601000083186   -1.58098765247961    3.69935622397496
C         7.37718243724002   -2.87955426027030    3.23639508897431
H         6.55594920400727   -3.57550952880731    3.31943020257499
C         8.58029147089052   -3.26788220461691    2.67670358783672
H         8.70700535676032   -4.27742411141121    2.31718693931600
C         9.61480063466501   -2.35363017115240    2.57527843355239
H        10.55469172311359   -2.64550079189322    2.13216361791428
C         9.45032719804473   -1.06583391463803    3.05412913078887
H        10.26808751788344   -0.36244619592865    2.99027079124024
C         8.25460512858430   -0.65598063377606    3.63011217979738
C         8.10337239849137    0.73160200152782    4.17641075418521
H         7.55734287962603    1.37488474083204    3.48463728287144
H         9.08015219598185    1.17766291837114    4.34633970121599
H         7.55710458518984    0.71553244179522    5.11905887511099
C         5.36994682175169    1.40044655384906    1.87350326905087
C         4.49215132846406    2.37059235805224    2.36813604192598
C         4.56449817412301    3.63889218573857    1.79838748527691
H         3.91274612133811    4.43322831663935    2.14466736838250
C         5.45153308076214    3.92382874943649    0.77264201946828
H         5.48640794771060    4.91711108132125    0.34825906225025
C         6.27672993162691    2.93259865487905    0.27726603058727
H         6.95221727252256    3.14940641230104   -0.53805322245694
C         6.25588461261961    1.65609648016156    0.81987198307426
C         7.16196841284673    0.59014181276677    0.26533951716328
H         7.75291682438710    0.99861090467061   -0.55083626714314
H         6.58740363173931   -0.25059207875345   -0.12733654705616
H         7.85265129843023    0.21166373585863    1.02093199859291
C         1.23502998012407    3.99470384392526    3.21091280849726
C         0.20939844497250    4.69772211324600    2.59406108273996
H        -0.14072587421158    5.62286447091696    3.02382992684921
C        -0.35837738640753    4.19164489220846    1.43785287282020
H        -1.15663314734196    4.72098824138210    0.94049783636478
C         0.10427239078184    2.98494299208729    0.94089817930201
H        -0.32909649909315    2.54956215061745    0.05442137743839
C         1.13082504716742    2.32634034800516    1.60226464508122
C         1.65244712532623    1.00167606553771    1.13567311932735
H         2.66756729757566    1.12089415421702    0.74034532068117
H         1.01613791967433    0.58640857151010    0.35783654004757
H         1.68685764865224    0.29761783379358    1.98456911989782
C         1.86436173106490    4.46263435153885    4.48423450712985
H         1.74883889174941    3.68224480501302    5.24803534430055
H         1.39350230782530    5.37482707583337    4.84131790133628
H         2.93311342064613    4.64863100190723    4.33225775260842

