49
CSD_code = TIDQAY | q = 0 | S = 0 | Stoichiometry = C13H28Cl2N4SiTi | MND = 6
C         7.21255363282747    3.09146072124122   14.17293920199529
H         8.15578253980989    3.10218551311179   14.69399305059473
C         6.29629998951769    2.04610102290523   14.43112837274114
C         6.89324191922154    4.07000623301922   13.26222255035483
C         5.65111783441409    4.00291474221733   12.60388827003953
H         5.37622457041357    4.75720322620331   11.88456454860479
C         4.80129332434559    2.96131572743792   12.88884466128781
H         3.83340514612139    2.86436919103772   12.40789320158414
C         7.82900335173385    5.19923808039526   12.96606271750667
H         8.00742388335365    5.27005450255516   11.89509102688523
H         8.77921347609948    5.06413997662596   13.47449045766285
H         7.38994170195450    6.14158599507119   13.29034541526299
C         4.37486046499129    1.57080914220123   17.59418072618512
H         4.71990881662409    0.56999027148463   17.85760206113644
H         3.71492771941316    1.94382189026873   18.39088517090354
H         5.23683790546631    2.23501845341162   17.51486987689031
C         3.12461914899702    2.82870564231915   15.96615044594136
H         2.54139028386011    2.74224071778002   15.04781206297431
H         3.93461216381187    3.54617089948462   15.81194605231040
H         2.47353315091735    3.20881597412960   16.76653154048559
C         6.34417911846449   -1.77985470748690   13.52500071321228
H         6.51605874023785   -1.90601006171108   14.59595364584427
H         7.29862618202824   -1.51361081717750   13.04073747765855
H         6.01023465369031   -2.74165618666068   13.10218534481928
C         5.08449970618846   -0.58417647559183   11.89662049665825
H         4.27334002803441    0.13390329940820   11.75148383549698
H         4.79091561775750   -1.54125945496098   11.43653075816747
H         5.98176049502655   -0.21764549739227   11.36818098147570
C         7.52963613441228   -1.01851002373150   17.09585906620098
H         8.03251833646736   -1.83637246100708   16.58920977302527
H         6.47348878976226   -1.26741782730483   17.15449529659845
H         7.91964659962341   -0.98291849412191   18.10771759217545
C         8.16201983404456    1.99276199631194   17.52608885868506
H         7.95665279592914    2.99470728916290   17.15974477336456
H         9.20184915789157    1.96462179559817   17.83579856346295
H         7.55828761348781    1.83844436326897   18.41542870092923
C         9.36802662259019    0.49455478718444   15.06972485526859
H         9.08640186363859    0.21968576246564   14.05664206474378
H        10.05203456627527   -0.26274852003759   15.43940433010934
H         9.92333470225601    1.42593549427233   15.01287621813144
N         6.41113503235909    1.01734130872181   15.26885221235750
N         5.10787321147470    2.01518139980824   13.77337736192347
N         5.35342531713111   -0.75741464719068   13.30199454556942
N         3.68508942235708    1.52218152275825   16.30663024766926
H         2.89522880110406    0.87295360749489   16.40636638672708
Si        7.82129573715576    0.63896485831207   16.20274656391128
Cl        4.16994770244448   -1.42154182148453   16.05077307173664
Cl        2.54199750958443    0.33824775901892   13.81232508610675
Ti        4.63550468466881    0.24470382913194   14.64780976661288

