52
CSD_code = TIHDUL | q = 0 | S = 0 | Stoichiometry = C21H26Cl2N2Pd | MND = 4
Cl       12.51585662794554    4.70066832128501    1.53176040083127
Pd       13.42965315102154    6.66009105457688    2.10027798516968
Cl       11.40712437263407    7.52935671475623    1.77673456524370
N        15.27563603547528    6.01891034993547    1.93153237236992
N        14.49914936289695    8.34086835841440    2.82430486689232
C        14.91120414450656   10.55018283665050    3.62660573118040
C        16.18765719522764    6.93574708465226    1.92991183449037
C        11.89455252394116   11.82071855593103    3.82664284570300
H        11.71272748171435   11.86595596041721    4.90391229730385
H        11.12262945900343   12.42133042783671    3.34054009819586
C        14.41377587547780   11.79589876765962    4.29057705317464
H        15.24101239585368   12.50537969204928    4.35867242158876
H        14.08526277395388   11.57038841703525    5.30853468131679
C        15.66859941211470    3.69614522847961    2.44061993292041
C        17.60814528085556    6.68468954837394    1.51915325785391
H        18.28256481089370    6.89868584117706    2.34768080549106
H        17.88344286374339    7.32704944572597    0.68350194249000
H        17.73540399008828    5.64596732699140    1.22297217993360
C        12.71073335189918    9.40983945370682    4.05788542570368
H        12.77252462446044    9.67093980838158    5.11793652171605
H        12.31790306543096    8.38860530025233    3.97262556494895
C        14.08379866479825    9.43102456808712    3.46881331680242
C        16.20733112343383   10.48469871640327    3.12728362659103
H        16.86248560003757   11.33916343702862    3.21472291549981
C        15.94552838322092    2.10059608955797    0.64601792433210
C        16.66714881508216    9.31540135971382    2.55696556077933
H        17.68534030402072    9.23549098038168    2.21430093542542
C        15.78957290332006    8.23987754065858    2.42519382704537
C        15.52365813187962    4.70904248677603    1.49072860481258
C        13.25348861156550   12.44766263029155    3.52457397117810
H        13.21397203163642   13.50405190714462    3.79954657640591
H        13.45344187236833   12.39263557506217    2.45240118878658
C        11.75480622536379   10.37871430080502    3.35105518687520
H        11.91776388689821   10.31572148072686    2.27472275221960
H        10.73492626521179   10.04281985902091    3.53744246830232
C        15.73334222661018    3.11688884693088   -0.27784403721904
H        15.71968809778818    2.87975701519372   -1.33184034705254
C        15.89317100225528    2.40285842309700    1.99930799584601
H        16.00915369324869    1.61315772464966    2.72743809567872
C        15.52301379524631    4.04200634036542    3.89057032434757
H        14.59013396752046    4.60606944532150    4.02876334767006
H        16.34794494421138    4.66801940490555    4.23405950694340
H        15.48669822148188    3.14436682370571    4.50110142186245
C        15.51449781393151    4.42351480964174    0.12071346251563
C        16.16643422299366    0.69426274896062    0.17911588230520
H        16.57458096249121    0.07781550673343    0.97605964763947
H        16.84652304108349    0.67105324131807   -0.67030564331294
H        15.21944649155997    0.25831776161608   -0.13888608323688
C        15.18094906202877    5.51262616694264   -0.85500268957306
H        14.28367845619153    6.05343404515777   -0.50707297091415
H        14.97149252606726    5.09366322406813   -1.83515517151186
H        15.99642985731816    6.23086904544274   -0.95177438155928

