66
CSD_code = TIHREH | q = 0 | S = 0 | Stoichiometry = C29H28Cl2O4P2Pt | MND = 4
Pt        8.78158913187151   14.07820647862075    0.10447545119887
Cl        9.43921552956946   13.83807130276795   -2.08391921470547
Cl       10.93869975678369   14.47037724984172    0.77304541087130
P         7.74966929566001   14.23931207918143    2.14640348364473
P         6.69738864223082   13.85610639075318   -0.75517958446287
O         8.06714007624389   15.24117284018429    3.34989565938856
O         7.64193309424544   12.91051486932361    3.01669319798842
O         6.24112790625362   12.82717053979004   -1.88682659142713
O         6.14700282975985   15.22196490276698   -1.36720638783598
C         5.96918646046438   14.56723724631846    1.74036732824523
H         5.91539970816414   15.58809391912624    1.33723321360914
C         5.54065489955002   13.59302118588906    0.64648508857770
H         5.70652614618873   12.56496821681106    0.99740220226230
C         4.04644960264958   13.86455807117226    0.52992895757594
H         3.50885132314062   13.04480969728376    0.05662304378184
H         3.88938212543593   14.76549343535853   -0.06481958870459
C         3.60607854545713   14.08990930762034    1.99204809998904
H         2.90642082165104   14.92212058302254    2.05735597204388
H         3.10287792857177   13.20549092570971    2.38159448111902
C         4.89030661380750   14.37907820029575    2.80263086704817
H         5.14869435676124   13.53006793428004    3.43739928194727
H         4.78061968452265   15.25365609761467    3.44127972879504
C         8.28108045113822   16.59725227970128    3.10784474188536
C         9.46404216495609   17.02616214109786    2.52729372688106
H        10.20715092486012   16.29770360588285    2.23458715848635
C         9.66326487491023   18.38141421412626    2.32421081023413
H        10.58578963196953   18.71759769211515    1.87621406870133
C         8.69235834566681   19.29707603300639    2.69426761287688
H         8.85121360372840   20.35220728612575    2.53077945066415
C         7.51588577706367   18.85806421904756    3.27800961580121
H         6.75699026612979   19.56756920835632    3.57149900258328
C         7.30376551740065   17.50565580785592    3.48481335454582
H         6.39394701965402   17.14802940882929    3.94255640388869
C         8.20444665300871   11.71295377507379    2.58430233383202
C         9.53817267269232   11.64379563790608    2.21169038980450
H        10.15922489268058   12.52638686210797    2.27998971711991
C        10.06257589062349   10.43010449400585    1.79738203910870
H        11.09900426439632   10.37756854478577    1.50330297089224
C         9.26434765545597    9.29891284192840    1.76194529274630
H         9.67778433889186    8.35334464613060    1.44461739496964
C         7.93600554429343    9.37592049052971    2.14632805969992
H         7.31141793750640    8.49587737724523    2.12435222245430
C         7.39822184490881   10.58467015641257    2.55430341261662
H         6.36432326960500   10.65982993381504    2.85655365947340
C         6.94801145789841   11.68712495679505   -2.23051798612544
C         7.74222521077561   11.01479365987534   -1.31711843955134
H         7.83290070501423   11.38564855676861   -0.30231928491420
C         8.42737576077908    9.88035979264061   -1.71503732092857
H         9.05836101278262    9.37088574042656   -1.00383018274082
C         8.30667522926995    9.41185616933401   -3.01146854283294
H         8.84514966984594    8.52877041046865   -3.31922485117233
C         7.50048025546651   10.08279059017455   -3.91590317286523
H         7.40796612018951    9.72514679472397   -4.93006685021123
C         6.82063004536778   11.22402518170072   -3.53139619533155
H         6.20263662736935   11.77045366815599   -4.22626307249931
C         7.08625185761670   16.16074579814716   -1.81308411261539
C         7.88427463494761   16.82731607049276   -0.89364917122471
H         7.74275781386532   16.67134084126971    0.17119225683793
C         8.82977124907462   17.73361817360789   -1.34492568415332
H         9.45679681702007   18.24026734887284   -0.62806843488974
C         8.97410208994505   17.96808369814505   -2.70144834409068
H         9.72521095195405   18.65913093225209   -3.05198640908846
C         8.16306092703889   17.30849096111822   -3.60918938288369
H         8.27863430536091   17.48407873600347   -4.66775320749749
C         7.21739565016958   16.39804335179648   -3.16950671272553
H         6.59750358772329   15.85143043742506   -3.86278843871405

