46
CSD_code = TOJLOV | q = 0 | S = 0 | Stoichiometry = C23H19ClCrN2 | MND = 8
C        -3.72342754480265    6.32403736961779    1.63405996466271
C        -4.18772957661131    6.79456948887680    0.40539729884203
H        -5.14869069678282    6.47706120608883    0.02950625012988
C        -3.38469518386014    7.63964740989407   -0.33605132245354
H        -3.73469980901091    8.00352552937908   -1.29033040760415
C        -2.12473282567693    8.01279367138403    0.12080710080013
H        -1.50967768022454    8.66247193362101   -0.48351250872301
C        -1.64045703025460    7.54759973457158    1.32809599108664
H        -0.64709505090055    7.80829384451017    1.66106523091754
C        -2.44002313507844    6.70235227112888    2.09824473458954
C        -5.66151777856399    5.13685596855566    2.35299235308934
C        -6.04867341988879    3.79838737353778    2.43976078528075
H        -5.28424088554603    3.04178257199460    2.54687670360061
C        -7.38322722218704    3.45107016565835    2.36104998854521
H        -7.67065671908450    2.41162239395616    2.42132737946816
C        -8.35288717786242    4.42865349324540    2.20359056533274
H        -9.39569054432313    4.15494489491025    2.14711461722881
C        -7.97788660080946    5.75991564920250    2.12004110707998
H        -8.72997624939956    6.52652405025229    2.00327113460741
C        -6.64492319495308    6.11653026632633    2.18925910158718
H        -6.35139357105460    7.15560349895979    2.14223805831559
C        -1.03708760587578    6.49717767731238    4.01049835862404
C        -0.79237031870174    7.84011699961122    4.30882601506792
H        -1.47117649317293    8.59486150445051    3.93796417993937
C         0.29029367570605    8.19281543879472    5.09129909974681
H         0.46505822898338    9.23320518136678    5.32364300602816
C         1.14864952855478    7.22081156770576    5.57916573959900
H         1.99553900205407    7.50166977507593    6.18701356035066
C         0.91468196523310    5.88692892659174    5.28399984919028
H         1.58306053724794    5.12618809415310    5.65965933924100
C        -0.17078880513144    5.52373389661908    4.51092413159654
H        -0.35719732833500    4.48759293477603    4.26600862499025
C        -3.74918548378784    6.13786032116002    5.80065603245718
H        -3.52313562153480    7.18699960254075    5.92810048250911
C        -2.92267877850934    5.06557546423002    6.20419421635482
H        -1.95698923319741    5.15844351907425    6.67519531236718
C        -3.65896617202563    3.87529185912662    6.04244271135079
H        -3.33824711692693    2.88855945163169    6.34473791323672
C        -4.93764329794062    4.20771275490723    5.54906392052138
H        -5.76136844587581    3.52642005457628    5.40626272898780
C        -4.99155885561974    5.60636737165250    5.40302920105186
H        -5.87016436538056    6.17970937365001    5.14605693511440
N        -4.32193052479564    5.46277920243783    2.50165358883719
N        -2.15161265012609    6.10216826021227    3.28536664098768
Cl       -2.56469326871928    3.04601395137820    3.24359067842440
Cr       -3.35608667524425    4.85165403129620    3.98544360704103

