21
CSD_code = TOPVIE | q = 0 | S = 0 | Stoichiometry = C6H8Cl2N2O2Pt | MND = 4
C         3.34336724847020    3.36274861379409    4.35365007775536
H         4.37860762206734    3.04558261803302    4.40996504267792
C         2.92584569081604    4.52954752723204    4.97999952651545
C         1.58383961242943    4.89956523123472    4.90390656999675
H         1.25436114813812    5.80327059760152    5.39262627422730
C         0.71854926593510    4.08272632431407    4.19626238591275
H        -0.32788532626164    4.32644782137337    4.10764664809831
C         1.21195953788071    2.93893979421053    3.59535197618588
H         0.56633440590331    2.28208693661963    3.02331453612092
C         3.87394803140211    5.39048332498765    5.73911352391942
N         3.78682184350038   -0.77230100430010    1.94151833403125
H         4.75103073869683   -0.65099905213540    1.62632311820675
H         3.20697226331257   -0.99464958524028    1.13009060284807
H         3.75732672823056   -1.53557293089676    2.62087904096601
N         2.49986750330562    2.58395119494624    3.67490687188047
O         5.12972754198436    4.94219199837032    5.70140594354181
H         5.71205607977733    5.52397028426333    6.21554461187876
O         3.54838848379927    6.38825814279911    6.32666544899324
Pt        3.12124197126756    0.96572495855368    2.83452335660164
Cl        2.60519729495685    1.79099957474988    0.74582567476154
Cl        3.64454231438868    0.04512762948919    4.88148043488067

