47
CSD_code = TULHUD | q = 0 | S = 0 | Stoichiometry = C20H20I2N4Os | MND = 6
Os        9.55009236155781    3.45635515848434    6.40767658177331
I         7.74257888442057    1.38960301807516    6.40591942857790
N        11.10575028369680    2.09848682512499    6.40715051494121
N         9.54993527474804    3.45679027074353    8.47219415470455
N         9.55003547641225    3.45712746089219    4.34258210804856
C        11.14851748962386    1.07047154492743    5.54308797003159
H        10.32280750281213    0.97032996225468    4.85133163170178
C        12.17197939229783    0.14574448080036    5.50598126333835
H        12.13474984336408   -0.65400164716683    4.78350040114502
C        13.22540667532682    0.25904144904881    6.40037993806682
H        14.04042228062638   -0.44725441251800    6.39713529493333
C        13.19172795595949    1.31424662053672    7.29922261893701
H        13.98073868009820    1.46135127103412    8.01948409019457
C        12.13178481735073    2.19716849583677    7.26900376571615
H        12.11657230112773    3.02573257882811    7.96442962200452
C         9.70689885312592    2.32580109592040    9.18040575871206
H         9.82314713629300    1.40526542001243    8.62409162742793
C         9.71367803534859    2.28276421864919   10.55955854755985
H         9.84229057833856    1.33481481045072   11.05737757459022
C         9.54992847755179    3.45686639383308   11.27872345296883
H         9.54987577517864    3.45688798755894   12.35720731469059
C        10.69179023674426    3.45074006857143    3.63429998900798
H        11.61971337451193    3.45745125193088    4.19043494460774
C        10.73534179291905    3.44887172918565    2.25512491396700
H        11.69197108017216    3.44552781155940    1.75732203392310
C         9.54993909541439    3.45686284557135    1.53592281140548
H         9.54990603695770    3.45687079355161    0.45743738087872
I        11.35426613843656    5.52483023028950    6.40489786287177
N         7.99475219794754    4.81481351546031    6.40726887392115
C         7.95195881593880    5.84292541672829    5.54327214504690
H         8.77771462680021    5.94319048473681    4.85157300791113
C         6.92837172026423    6.76755332593358    5.50607575259045
H         6.96554820724683    7.56732682662347    4.78361413880982
C         5.87485445499973    6.65415114581284    6.40036029468276
H         5.05977646275614    7.36038945755172    6.39707807238608
C         5.90852561550987    5.59887955133617    7.29912396566128
H         5.11945152144973    5.45171022367083    8.01931093643117
C         6.96853480488639    4.71600246108678    7.26893843737392
H         6.98368740161780    3.88737232302162    7.96429463927034
C         9.38626580434331    4.63094227053460   10.55948976844966
C         9.39308010409770    4.58783862596895    9.18033557402774
H         9.27697189522339    5.50836625118893    8.62397257348676
H         9.25760908672953    5.57891076643893   11.05725693860865
C         8.36457888694130    3.46481215613580    2.25519221842416
C         8.40822553677614    3.46315280752156    3.63436335242509
H         7.48033094818980    3.45621404747604    4.19054876626401
H         7.40791607786819    3.46810060878581    1.75744694750179

