56
CSD_code = TUWQUY | q = 0 | S = 0 | Stoichiometry = C26H22Br2N2O2PRe | MND = 6
Re        6.40927152414771    1.50905277250012    5.63743867153612
Br        7.16592417178502    1.02489754207607    7.98320013755887
Br        8.12485577409884    3.21694043038637    5.29657202534803
O         7.26719681332434    0.26289432253028    4.96829290860835
O         5.18137630046389    2.73125976693990    6.33355349653861
N         4.61170588003827    0.29127996218629    6.12738165440532
N         2.66346191422367    0.26969795506156    7.15747630096447
H         1.89263136935567    0.58046637494750    7.72508133185668
P         5.42710417146685    2.08339048101677    3.41510620261509
C         4.08785369070152    2.43037010433734    7.09357995357574
H         3.23354587250118    3.08689498246160    6.84800424909093
H         4.32362439519098    2.55990761173357    8.16764473803019
C         3.75527580663657    0.99253612492590    6.82494636590300
C         2.84764986877703   -0.99891535108654    6.64188841629390
C         2.06838459396611   -2.14338538909837    6.65384702361300
H         1.11237243744823   -2.17042275701492    7.15341115305491
C         2.57651967344277   -3.24855276514015    5.99925614050689
H         1.99946769861977   -4.16059049125606    5.98534519523742
C         3.81861776920475   -3.22335289407581    5.36086707463214
H         4.17071423330475   -4.11830094986986    4.87171229634119
C         4.60268576542302   -2.08928021227460    5.34479425491236
H         5.56853396567348   -2.04973191407310    4.86696162647108
C         4.09758378334250   -0.96927037045747    5.98925704855477
C         6.60883627987160    2.15503297431246    2.03706461556455
C         7.80922989772900    1.45794948882528    2.14519922405194
H         8.02550684764505    0.89595155060612    3.04670807458735
C         8.72519378339835    1.49916384214974    1.11024518785406
H         9.65861039474034    0.96510645912264    1.20029748821380
C         8.44963937880378    2.23579552781897   -0.03019535720209
H         9.16914089984414    2.27520867085890   -0.83428500293192
C         7.25653744790260    2.93223391269498   -0.13731252468093
H         7.04552856685603    3.51171975718254   -1.02395929392826
C         6.33470216139773    2.89757607048579    0.89283276985186
H         5.41010085055733    3.45153717531224    0.81159663723742
C         4.26719622971777    0.75867612200391    2.98436916719655
C         4.70376396114730   -0.34329060332548    2.25530192004070
H         5.70249087254594   -0.34591770797231    1.84200035783259
C         3.86392245831753   -1.42587253011156    2.06791559729122
H         4.20693510316040   -2.27798726426329    1.50058869540856
C         2.58999410814037   -1.42357865318826    2.61174861832947
H         1.93860512770753   -2.27249919949289    2.47018540645458
C         2.15210037561329   -0.33232111449139    3.34474029952211
H         1.15920081570346   -0.33106570197804    3.77099518975260
C         2.98755753021911    0.75105020251789    3.53808058687593
H         2.65004201118943    1.60070821609362    4.11920850012535
C         4.47921997330384    3.62540987890212    3.29245109522531
C         4.92490329414043    4.74247186997889    3.99371242048322
H         5.81247124989794    4.68116528301937    4.60700948706375
C         4.22904967791248    5.93545721464065    3.90514982597246
H         4.57635306727603    6.79747361095287    4.45425866387160
C         3.09454843627674    6.02266508826284    3.11539982101880
H         2.55026204218989    6.95310717874879    3.04985206850388
C         2.65908525105144    4.91663925580639    2.40195607570694
H         1.78126467371074    4.98585438259654    1.77584746165849
C         3.34670251987805    3.71987892962247    2.48576922035121
H         3.00724723903173    2.86021477555962    1.92344943704696

