67
CSD_code = TUWSEL | q = 0 | S = 0 | Stoichiometry = C21H39ClN3OPPd | MND = 4
Pd        2.60542007398231    4.03070174779825   14.61618261981696
Cl        1.47491360203577    1.97713708972740   14.55414704240869
P         3.60694734237755    3.84700123519575   12.65946861706470
O         4.80176852821270    4.96846031740897   12.68226627606984
N         1.99584871336284    4.86539338338913   16.62416705422299
N         4.51534659853901    2.54048427378270   12.12886668756344
N         2.65975912685776    4.24561596321556   11.35634104340116
C         3.59556403235095    5.72142364702726   14.58873576933750
C         4.58490717238822    5.95020029549904   13.64078088052630
C         5.33403878822839    7.11395292617680   13.66112945301667
H         6.09540231526767    7.28370327276368   12.91533110769239
C         5.08802172883072    8.04590081845706   14.66027841227875
H         5.66797726771597    8.95622435437217   14.68692076324324
C         4.11948189450625    7.82146614612889   15.62347805877220
H         3.94990374939110    8.55304262505133   16.40150104975900
C         3.36968200475476    6.65035653854854   15.59252891066871
C         2.28883477013633    6.32067649818164   16.59223539009840
H         1.38609400061971    6.85799645614485   16.28959817059049
H         2.55968861862258    6.68147677622443   17.59475158539967
C         2.80874644272478    4.22043849918113   17.68353589980471
H         2.60509388373576    4.72064868710900   18.64667748594248
C         4.30203843026334    4.37305138665029   17.37714877504866
H         4.52705426563773    3.91855681163969   16.40189851571608
H         4.88212824144759    3.86041447866068   18.14159530562915
H         4.61612800531410    5.41330880551034   17.35479316632790
C         2.50777320952475    2.72768557853289   17.82088731001316
H         1.55629222449138    2.53902553144813   18.31121585666927
H         3.28433746885452    2.25407700755786   18.41675528827551
H         2.49666223376921    2.25775339340958   16.83409513095488
C         0.54473291041132    4.59979405508054   16.76284889291789
H         0.43779769273795    3.51255975354369   16.81578686979680
C        -0.21076255244186    5.03159680824161   15.50184834948708
H        -0.28576427396846    6.11363916191381   15.40080140530850
H        -1.21907041906374    4.62516025000009   15.53437644400387
H         0.29104847243528    4.61282589956386   14.61394147629534
C        -0.09324901860988    5.21559190190506   18.01148003432707
H         0.38317242741839    4.85460846146411   18.91969901196629
H        -1.14198943452793    4.93194425452079   18.04984572778037
H        -0.03807380385432    6.30185579644858   17.99841110463080
C         5.65935129284027    2.21877065158379   12.97609574469671
H         6.22707840961585    3.14399103402243   13.10364643032500
H         6.29113608371274    1.50744283890047   12.43724498574195
C         5.28595793362947    1.66005202242739   14.34902639940751
H         4.50727328415547    2.29052710870154   14.80555010917368
H         6.15874538810219    1.64932299782050   14.99753766576153
H         4.89821616115759    0.64696447731451   14.27490105652175
C         3.71659778978629    1.39310103541556   11.70311016668096
H         2.77141132115580    1.78554866666834   11.32086417287941
H         3.47894316021621    0.73691745312088   12.54595126061603
C         4.41569921725635    0.60296211025529   10.60323631082956
H         4.70395481145379    1.26283884199764    9.78858463313768
H         3.74030368894487   -0.15582961503905   10.21709201846882
H         5.30658295953152    0.10516350575104   10.97748306161036
C         3.22968335502251    4.37074596790411   10.02924527357624
H         2.54662967234801    3.92563134157340    9.29677081020532
H         4.16134365933414    3.80046369532212   10.03068342050384
C         3.53421218641085    5.81811416616603    9.64652367843691
H         2.62730634603510    6.41775754084096    9.61822979992658
H         3.99824661842666    5.85031629266838    8.66389783624250
H         4.21467957853980    6.25535230179940   10.37226089384250
C         1.27681780928722    4.63733795343876   11.56726418576743
H         1.01797177828844    5.42884124198955   10.85828651192076
H         1.19042603510608    5.05375846883923   12.58720227715837
C         0.31541015983268    3.46054726667486   11.42297835767842
H         0.42964913035357    2.98631400118778   10.45048610143252
H        -0.71208302716836    3.80105073217146   11.52565698586028
H         0.51835846214145    2.72534501300943   12.20053890876973

