58
CSD_code = TUXRUZ | q = 0 | S = 0 | Stoichiometry = C26H26Cl2P2PdS | MND = 4
Pd        2.13674339846030    3.58312907797173    7.34663011738872
S         3.17520028415441    1.56230101895665    8.01309355527992
Cl        2.41841507502938    2.83245242944588    5.24348005540476
Cl        1.28516458398893    5.52821086889439    6.60747103318459
P         3.38090980283447    1.63807294334083    9.97322315713238
P         1.71842817728683    4.57360263074511    9.30019162745169
C         1.99274313484114    1.17231687824029   11.13804844461085
C         1.03880451146043    2.34729863881538   10.86009660496052
C         1.89576318784287    3.62463843201283   10.89853617019399
C         3.35453909824658    3.16195758427057   11.06323649434736
C         3.46060495149472    2.48991499276603   12.40510248654455
C         2.69040527976141    1.39287419503669   12.45132927796629
C         4.30613205371570    3.10035223996456   13.46773855341898
C         2.46003816612196    0.45161167823049   13.58156335706636
C         4.84781169819250    0.69735168494598   10.44952905289186
C         6.08401620615419    1.33234439266791   10.43907460927243
C         7.22590987027784    0.60938209026780   10.72992476521007
C         7.13423266163766   -0.74371875537680   11.01622143292427
C         5.90299013879512   -1.37949431213865   11.00456070727006
C         4.75622560056347   -0.66251803205429   10.71531899383440
C        -0.03001400653022    5.05983145876530    9.40048732495144
C        -0.89166245118927    4.27058728261762    8.63701223141892
C        -2.25019612948739    4.51644234185179    8.64350555775154
C        -2.75804040070927    5.55984924126778    9.40285824667529
C        -1.90467613590968    6.35599301556402   10.14671119769554
C        -0.54207445999080    6.10811258378979   10.15206333176994
C         2.84509424069099    5.96616941828383    9.60732072931493
C         3.84789486759149    6.13913571637488    8.65277300894725
C         4.80081084797931    7.12793658220157    8.81300174902013
C         4.76700467465588    7.94483797136435    9.93211369018276
C         3.79244438123130    7.75758125615975   10.89877866690544
C         2.83852813869028    6.76687598810953   10.74590931004019
H         1.52036829022219    0.19878451677172   11.01428205852896
H         0.59583648469200    2.21846709793887    9.86089090556913
H         0.22789501213525    2.37673288639769   11.58865821370598
H         1.61611003440164    4.26980503415243   11.73987662492780
H         4.08679298134534    3.94745067920778   10.86969018425507
H         5.34948120776624    3.10942600585222   13.15184718102829
H         4.23204980072494    2.55150594251723   14.40151075776164
H         4.00293975676999    4.13274686153851   13.64193989069604
H         2.77344474482197   -0.55353478279343   13.29986352430930
H         3.01207411072431    0.74911283925381   14.46772404260328
H         1.39860196313640    0.41282434789631   13.82611621833127
H         6.14003395170635    2.38575338289205   10.19897443438536
H         8.18880506619275    1.09791174766946   10.72749333525245
H         8.02761116956802   -1.30707857522865   11.23965793949252
H         5.83851625223553   -2.43650076309008   11.21540216580745
H         3.79116732103264   -1.14874543178999   10.68979823724364
H        -0.47403687619991    3.48343604942112    7.99642100118655
H        -2.91310449825533    3.90870275287466    8.04612908235862
H        -3.81871832946322    5.76223067693943    9.40004040456515
H        -2.29972589365228    7.18118570992482   10.72113568362502
H         0.11545741032339    6.75007817851209   10.71724507368335
H         3.86741911666961    5.48775450008377    7.77024736419254
H         5.56862083296106    7.26324058313038    8.06625853202642
H         5.50505970147572    8.72326294513645   10.05606697106147
H         3.77677337497618    8.38492480222410   11.77832247697582
H         2.09943556584212    6.61678847924966   11.51990215540036

