69
CSD_code = UCUBUQ | q = 0 | S = 0 | Stoichiometry = C36H28BrNNiP2 | MND = 4
Br       -1.80186119409464    4.21472420864079    4.23555881709086
Ni       -1.80196046478757    6.43073921087284    4.23517378856263
P         0.32511445746755    6.59262698724408    4.01069014963660
N        -1.80191370303850    8.38124645910982    4.23502289094788
C         1.35398004669838    5.70929766261351    5.21792245702210
C         0.77816452840109    5.43867135532487    6.45525893746353
H        -0.26352366482856    5.69748623346634    6.62453521819954
C         1.52045471120855    4.83169219886825    7.44898314683127
H         1.06930696627432    4.61586109840261    8.40588276854143
C         2.84304102282062    4.49407233331335    7.20975327530644
H         3.42528982072319    4.01508946515209    7.98291615477528
C         3.41932634905310    4.76352154498450    5.97923861003610
H         4.44995634642917    4.49694831024908    5.79527193781603
C         2.68046974819046    5.37147501416439    4.98018051914378
H         3.12856619783740    5.57473073480595    4.01747932653742
C         1.15992199709780    6.30591514692797    2.42848994055480
C         1.27262338711299    4.99268667557195    1.97379635789537
H         0.88093914318558    4.18360802292886    2.57671389358620
C         1.87747209117102    4.73893387362132    0.75763213243721
H         1.96946567748925    3.72223692813618    0.40583337727447
C         2.36012711320752    5.78756725920607   -0.01107782662544
H         2.83315832342227    5.58691931929600   -0.96112495689546
C         2.23021176847066    7.09371677317367    0.43203265939036
H         2.59973069282616    7.90994702623660   -0.17169793706325
C         1.62436714402291    7.35787722961645    1.64756131505036
H         1.51535665647653    8.37587089631728    1.99650313724322
C         0.56868093871070    8.32481818685486    4.46304975295081
C         1.78672793011461    8.89425810940915    4.79269394588893
H         2.69220778269449    8.30998598885780    4.69672090329083
C         1.82753881350520   10.19723545849978    5.25226803864439
H         2.76992714053400   10.65774919783937    5.50619657725423
C         0.63655583604440   10.89197111899456    5.42758515835839
H         0.66006140795913   11.89117637054263    5.83916427345502
C        -0.58099480738165   10.33112396978798    5.10775324911020
H        -1.49113324635908   10.87730684507219    5.30689889984873
C        -0.64738387199499    9.03259636712928    4.57546983880139
P        -3.92909241203856    6.59271618584619    4.45921952403804
C        -4.95761726587395    5.70934436615919    3.25171019195558
C        -4.38126412240470    5.43766607051795    2.01486200362354
H        -3.33934424976457    5.69580925168996    1.84599053098968
C        -5.12335158783918    4.83051694524209    1.02108211393026
H        -4.67179337783307    4.61387446688005    0.06455954829475
C        -6.44628332652527    4.49385779894469    1.25974013797484
H        -7.02837737356384    4.01476394913284    0.48652910136498
C        -7.02311720338352    4.76438807286156    2.48976384067115
H        -8.05401112501484    4.49853964976690    2.67330094428399
C        -6.28444977449635    5.37244676597210    3.48889039832753
H        -6.73294646667503    5.57647482408612    4.45124338315434
C        -4.76458194845627    6.30588444805708    6.04104884735422
C        -4.87693105626546    4.99263842939578    6.49577846802129
H        -4.48446127246416    4.18369962921372    5.89318671361994
C        -5.48239476822252    4.73868734186094    7.71159335004462
H        -5.57405523895929    3.72197744830929    8.06343919203793
C        -5.96608280866464    5.78714339409205    8.47989453254670
H        -6.43962579416499    5.58634173437623    9.42965417758881
C        -5.83657509018963    7.09331510505492    8.03673198792713
H        -6.20693973564229    7.90940885371582    8.64012930464034
C        -5.23006771643093    7.35768063606185    6.82157577740344
H        -5.12136474730584    8.37569983948370    6.47261512762857
C        -4.17250327645739    8.32491367961347    4.00678001371165
C        -5.39047847501142    8.89443739455264    3.67700522232091
H        -6.29600974145337    8.31022946692526    3.77287188945947
C        -5.43117147684581   10.19741718168914    3.21742871485157
H        -6.37350971582900   10.65798412062022    2.96341011641706
C        -4.24013436315319   10.89209237125670    3.04224347732073
H        -4.26353911212636   11.89129474615833    2.63065142766583
C        -3.02265164261411   10.33116081596636    3.36217369104214
H        -2.11246152192602   10.87728427633694    3.16310208258367
C        -2.95638529902534    9.03262715889673    3.89446343884871

