55
CSD_code = UHEHUK | q = 0 | S = 0 | Stoichiometry = C26H26Cl2Zr | MND = 12
Zr       17.05116931301031   10.21877699739157    5.78867883980608
Cl       17.14020035004209    8.61066103136502    4.08388711311909
C        15.08256491199602    8.99341928422778    6.46841804171816
C        14.61169833244996   10.05670400610029    5.63812813752467
C        14.80376980813890   11.27559007657923    6.33988591435341
C        15.40552176935580   10.97330761953440    7.58500296027052
H        15.53564092359090   11.67142275627503    8.40325381002296
C        15.58619734722734    9.57445935236157    7.66711055609279
H        15.86442070467487    9.02437684476789    8.55774433215785
C        14.01864935826601    9.93766746604830    4.26218548114528
H        12.92919737108273   10.01466433010434    4.29931352152316
H        14.28208465905055    8.98037930481105    3.81063146685202
H        14.39119596220739   10.74006345782361    3.62058139190556
C        14.31313393014127   12.62522108637331    5.89990087748867
H        14.87414048435893   12.99484628680262    5.03918343200372
H        14.40493998475240   13.34621721990233    6.71080143635918
H        13.26287083077825   12.56369297648766    5.61307595858234
C        15.06296131031724    7.55260715677966    6.19130068199184
C        16.18405347702334    6.78000443066090    6.50672514459661
H        17.06137955599578    7.26396705234364    6.92790252248403
C        16.19246522329982    5.42137379790891    6.25901928343053
H        17.06923936540824    4.83620574209897    6.49563661720890
C        15.08360931818440    4.80883870120047    5.69618915601222
H        15.09440650829546    3.74786673539534    5.49643749856672
C        13.96457902430293    5.56309169492284    5.38962245793200
H        13.09642137709554    5.08913690957862    4.95545560721657
C        13.95008880370703    6.92419034905213    5.63642814476898
H        13.06785210912641    7.50474900668266    5.41246928280043
Cl       16.96216987699826   11.82709096558499    4.08399920359125
C        19.01977109618711   11.44417452467734    6.46838501553707
C        19.49063869876238   10.38087686799320    5.63811193463725
C        19.29857169831386    9.16200112699619    6.33988984906556
C        20.08364476502157   10.49990031272782    4.26214861678138
H        21.17309932880094   10.42292200711196    4.29924170797722
H        19.82018037084336   11.45717686676258    3.81058419196440
H        19.71108690827548    9.69748656266282    3.62057161650304
C        18.69683474179711    9.46430391276103    7.58500796282057
C        18.51616320976006   10.86315320620188    7.66709795291282
C        19.03943378520201   12.88498559064103    6.19126412370945
C        17.91838083182161   13.65764564042486    6.50668315239382
H        17.04103013883049   13.17372812798102    6.92786900613854
C        17.91006728484100   15.01628782533911    6.25903475680224
H        17.03333515344361   15.60151060658738    6.49567294758149
C        19.01897375164120   15.62877054266794    5.69624664849976
H        19.00824568602844   16.68974909436736    5.49652265754214
C        20.13796004904152   14.87445640131330    5.38966754237681
H        21.00614997366373   15.34836827398033    4.95551957094942
C        20.15235895812958   13.51335006496486    5.63643421209773
H        21.03456270300956   12.93274106190028    5.41247536345594
H        18.56672271973515    8.76620714048615    8.40327376758278
H        18.23795767351911   11.41325360370041    8.55772775680598
C        19.78918795114738    7.81236426218154    5.89991202721215
H        19.22827560771769    7.44278626909078    5.03917896934848
H        19.69731306289231    7.09136406447562    6.71074443835037
H        20.83943186071838    7.87384340280783    5.61316533942550

