55
CSD_code = UHEJOG | q = 0 | S = 0 | Stoichiometry = C26H24Cl2F2Zr | MND = 12
Zr        2.02985991422785    9.02394496957399    0.13701483560352
Cl        1.92375225541834    7.07284924939778   -1.16302136964692
Cl        4.16845918172069    9.52472664848166   -0.66386546721984
C         2.29793926315953    9.42557816646185    2.52771323375660
C         3.40208472163310    8.58081405056870    2.18580878514722
C         2.87783940811223    7.32806829723666    1.79381537580546
C         1.46244776683488    7.37975950598782    1.91062978656703
H         0.79220251166671    6.53845070841844    1.77398219565665
C         1.10377920041904    8.65745746616021    2.38410979575395
H         0.11744392899131    8.95441080261008    2.71271085114783
C         4.85737041258338    8.84826996585802    2.44755044884877
H         5.29505379562502    7.98872358019319    2.95658308877282
H         4.97727262922777    9.72248181802238    3.08502811529526
H         5.41759806432391    9.00864994230681    1.52491361362391
C         3.70181723557534    6.13993726767428    1.39339165440150
H         4.26269197374741    5.75756727075861    2.24893466819490
H         4.41878887705696    6.41637530333252    0.61548533865231
H         3.06524040012334    5.34201056864385    1.01415830592229
C         2.39580785294053   10.83351188590975    2.91100689246215
C         1.57443355004768   11.41262394399125    3.87959968180600
F         0.63937978012962   10.64642113889574    4.49068640522467
C         1.66485477963119   12.74343321116438    4.23548517415143
H         1.00436779153984   13.13337493869057    4.99379927031758
C         2.60381895370783   13.54509595724224    3.60974746087916
H         2.68515185207016   14.58612414881400    3.87975117853770
C         3.42633914829091   13.00794192207238    2.63138739690089
H         4.14699442135268   13.63627163062461    2.13077409008284
C         3.32290025176922   11.67454998199139    2.28137731300748
H         3.95026333938447   11.26786508686717    1.49415784578946
C         1.34958037298751   10.60162316685368   -1.62623583904845
C         0.28103931233078    9.65647015923464   -1.55804892584191
C        -0.31365262581483    9.77093029291706   -0.27645921291119
C         0.35160601490163   10.80730098273593    0.43024105158988
H         0.02864901734003   11.23910208912921    1.36940440084115
C         1.38389524604651   11.31273659878004   -0.39009391974960
H         2.00343253418802   12.17471374030850   -0.17602693059477
C        -0.30045592885602    8.86673535966454   -2.69614356025842
H         0.08915930531935    9.22750057623526   -3.64614304402900
H        -1.38497545679019    8.98438907475034   -2.70190826771411
H        -0.08025349604279    7.80117515234318   -2.61261913299760
C        -1.51934037306573    8.99758061910030    0.17926025617387
H        -1.80844739258306    9.28638041881203    1.18833553779717
H        -1.32556121493345    7.92114128800256    0.15638576732340
H        -2.36692673426856    9.19401259213841   -0.48016134815882
C         2.24828858033697   10.80663266222239   -2.76520937905804
C         2.69879797632539   12.07380163997594   -3.13464840852710
F         2.28546289089844   13.15405756610285   -2.42927566165778
C         3.54918678054892   12.28010858404070   -4.20248749334523
H         3.86212946936874   13.28436723329472   -4.44140208017689
C         3.98267328427089   11.19111683541808   -4.93774157319306
H         4.65092309374389   11.33858556785835   -5.77193380912795
C         3.56643609433099    9.91594034457548   -4.58968751052798
H         3.91857656087182    9.06301119767051   -5.14952202017044
C         2.71434833927078    9.72375697259481   -3.51871675123620
H         2.42937508796053    8.71923985730073   -3.23017811084420

