36
CSD_code = ULIVES | q = 0 | S = 0 | Stoichiometry = C17H13ClN2O2Pd | MND = 4
Pd        0.95807331333714    2.11965896799038    5.70122572869940
Cl        1.45834378412423    3.51201449594065    7.39533596971442
O         1.79245048946228    3.42927459164283    4.24464529699588
O         0.14675995306197    0.78964186826225    6.88350833523297
N         0.60606506614721    1.05015338222535    4.11481764765881
N         0.03099577007285   -0.08850486923952    4.04848140009018
C         1.04636947784896    1.62311058896599    2.92515927566328
C         1.67763448942883    2.88610853732474    2.98950308865681
C         2.13148078537145    3.49089992054863    1.82731986631799
C         1.96573238309302    2.85517759188027    0.60711524680328
C         1.34829809477941    1.61641292810508    0.53540694807108
C         0.89137409419992    1.00371910790020    1.68330310886281
C        -0.43542494871137   -0.75316894562059    5.10146427479307
C        -0.36532935949047   -0.30716208796414    6.47264111506671
C        -0.91833205396154   -1.16895367386559    7.47525597863949
C        -1.49313305076876   -2.35605111184360    7.17640129076998
C        -1.58262589396558   -2.82176601375096    5.83504364372113
C        -1.05484038112529   -2.02342528518380    4.79814376896202
C        -1.14823753554285   -2.49078175833704    3.48001051625109
C        -1.74003769439264   -3.69853753697699    3.19877574137076
C        -2.26168102790594   -4.48653329701621    4.22556766269746
C        -2.18246322006538   -4.05177402997242    5.52512774776665
C         2.42257044270670    4.69325210853313    4.40837245013814
H         2.61415939552932    4.45389346903247    1.86201677003102
H         2.32358698179158    3.33566646087994   -0.28989810406435
H         1.22437882465458    1.12897073587128   -0.41875354718798
H         0.40878327114187    0.04042102101121    1.65112634464094
H        -0.84890085088041   -0.81051352538452    8.49113345208883
H        -1.89866239639204   -2.97586702020670    7.96318322647865
H        -0.74587058477427   -1.88150250349520    2.68697168666003
H        -1.80364157520133   -4.04277770560797    2.17702424076544
H        -2.72519210709547   -5.43384754715603    3.99423463031923
H        -2.58234925075764   -4.65178264632056    6.32977682809439
H         2.38973989638227    4.88928935486165    5.48435699508736
H         3.46069081652184    4.65476784091172    4.06744237721486
H         1.87433460138091    5.47121658604822    3.87015899691956

