37
CSD_code = UNIYIA | q = 0 | S = 0 | Stoichiometry = C12H19Br2CdN3 | MND = 5
Cd        2.21484155618439    0.83118725759827    3.90874135862981
Br        2.30530893169928   -1.68620473784107    4.02081146123302
Br        3.33623304335898    2.56250938108245    2.50968659377135
C        -0.38723041136250    1.35970818886670    1.90602501487323
H         0.39435540618666    1.80215179563453    1.29846216100144
C        -1.65563168892783    1.13909555851212    1.39816802316217
H        -1.88746975932628    1.39820782828363    0.37790346988201
C        -2.60993313890353    0.57600082166759    2.23234691180637
H        -3.60990252525776    0.38220094494623    1.87427961120966
C        -2.26113561458834    0.26928455070136    3.53573570138043
H        -2.97827130167915   -0.16784752923386    4.21349145657511
C        -0.96280116151468    0.52475630924179    3.96552088481106
C        -0.52561196157510    0.17413271390872    5.36420370901701
H        -1.39970727844393    0.21331468333765    6.03084731718370
H        -0.15836725308217   -0.86025604712745    5.34468995145826
C         1.19618196365243    0.60206398556175    7.06940101138478
H         1.38740962459077   -0.47519909652438    6.99223508178038
C         0.30771168431137    0.88512023152231    8.28786128520748
H         0.08206315294569    1.95543192998124    8.32126931052193
H        -0.63512718215432    0.34434933951951    8.18845373085083
C         0.99105511932279    0.47383849823749    9.58758784647076
H         0.33660389762840    0.69550797963455   10.43208870508813
H         1.17260865587939   -0.60266776687507    9.57703095149954
C         2.31488441985353    1.21214191504593    9.74297905953719
H         2.81104239394960    0.90266390574094   10.66381947277184
H         2.13056418650707    2.28691629038149    9.80645304402912
C         3.21557262063968    0.91734389523853    8.54926890291127
H         4.16221887336957    1.45318526029745    8.65465352354152
H         3.43579455364915   -0.15346817384217    8.52018145241191
C         2.55051034816090    1.32037390883566    7.22718654990824
H         2.37169316981903    2.40427571114400    7.22166605386518
N        -0.05137697978465    1.05588527664280    3.15459844435649
N         0.57298365797327    1.02082995421385    5.81295668821254
H         0.23443433718628    1.97787757065975    5.91726097296840
N         3.40592458757496    1.00926024448183    6.07911498467688
H         3.73399378594726    0.04527095363366    6.17162106695171
H         4.23087628620949    1.60715646688984    6.09019823505941

