64
CSD_code = UPEJEG | q = 0 | S = 0 | Stoichiometry = C25H26BClN10Ru | MND = 6
Ru        4.71318586400877    5.44894703257855    9.10456304996841
Cl        3.90020784086762    3.70843668642041    7.70153900499453
N         5.40719073418644    6.88805033425967   10.29137121721550
N         6.31119103309989    6.59785414870609   11.22752355259772
N         6.59596125657324    4.77162643542429    8.93110456790725
N         7.37482674314430    4.73449994926019   10.01448992119539
N         4.58205997749467    4.26529187081762   10.72162345507077
N         5.56938927946536    4.28051614176392   11.61967737559049
N         5.03403689074164    6.56179205415299    7.38606205514750
N         4.96518834974278    6.99073858420514    5.19820494241543
N         2.73888886736226    5.98562579353145    9.43057174293068
N         0.52854761291144    5.87791903806294    9.15067265659303
C         6.63443501489214    7.71175838093070   11.90956280923302
H         7.34838490197723    7.68751288651824   12.70747238686486
C         5.90651645471546    8.75843783163315   11.38756067815242
H         5.91994808233207    9.78386889326347   11.69521724574277
C         5.14499546692257    8.18562157009280   10.36572019239986
H         4.43875150056440    8.64830961823025    9.70142747201829
C         8.58449801417391    4.25183329938737    9.68454413266908
H         9.35658016625719    4.13846353921325   10.41857078229289
C         8.58027700040097    3.96880592262210    8.33684064215635
H         9.37969047913760    3.56880931296535    7.74756363464583
C         7.29734495637099    4.31361411707689    7.90655476078995
H         6.86483346297258    4.23258810857671    6.92642929811928
C         5.28760495096793    3.42318184880270   12.61504292761031
H         5.96106873759627    3.28509180476826   13.43670582830425
C         4.07194534533079    2.83580321244214   12.34376221956645
H         3.55148255818977    2.10430932914608   12.92715703976319
C         3.66769746064101    3.40135482061567   11.13270379969295
H         2.78393806661470    3.20690922433006   10.55353731622021
C         4.36399286981702    6.41466914503117    6.26803016378629
H         3.45630926205906    5.85128087974689    6.17106769366909
C         6.12493750254510    7.55450864573448    5.66030166163183
C         7.13241355068100    8.25744711805095    5.01367404279182
H         7.08374567358277    8.46371307024176    3.95544409654398
C         8.19939922649885    8.67308998312333    5.78131850283442
H         9.00653458319035    9.22018147140861    5.31801272932889
C         8.26158673664614    8.39301449963680    7.14763309547718
H         9.12047759383130    8.72656898365233    7.71002958288902
C         7.26101489862686    7.69972077343153    7.79571042688227
H         7.33754167076262    7.48732175775772    8.84878723539022
C         6.16672696036775    7.27567261015046    7.04616754986044
C         4.50057005882004    6.98358709008106    3.84188313679736
H         5.26072228552812    6.55534758759407    3.18545694230516
H         4.27969412170278    7.99999567831229    3.50621719519915
H         3.59773638823505    6.37975771660675    3.77622311367706
C         1.75730289003995    5.76403766917164    8.58922882455657
H         1.88613616583324    5.46638475947204    7.56676270432537
C         0.73036251928096    6.19552842477661   10.46776405203416
C        -0.15758986157358    6.41756020959241   11.51161079132789
H        -1.22520098507732    6.36860524303006   11.36138150870994
C         0.38471114496666    6.69565168817950   12.74814948790699
H        -0.26981155270987    6.87138243370470   13.58847477448111
C         1.76687245106036    6.74657212602476   12.93828429001754
H         2.15047301074965    6.95648157323858   13.92520977571833
C         2.65306332964116    6.53213962411370   11.90369724634965
H         3.71516010980328    6.56718971942814   12.07859268863332
C         2.13250538511830    6.25754896832128   10.64162551698329
C        -0.73504996084574    5.67415055003357    8.50469976904907
H        -1.31600917829866    4.92269615690702    9.04298662436782
H        -0.56482980697134    5.32608407987708    7.48788470365187
H        -1.30703592894443    6.60516972608604    8.47595708152479
B         6.81001037401887    5.15298194904476   11.37966553589864
H         7.60685944136527    5.04828629864174   12.24639074753465

