24
CSD_code = UQIBAY | q = 1 | S = 0 | Stoichiometry = C10H8AuCl2N2S(1+) | MND = 4
Au        5.79386517925612    3.02023578477090    9.41472881845171
C         6.41230182721522    0.45492762911923   10.83851377429596
H         5.33657792767711    0.45620083435041   10.92036667102166
C         7.17047612018549   -0.62192777464452   11.25075791236700
H         6.68555919877412   -1.48240755096481   11.68206777477423
C         8.54953765678796   -0.57715040385444   11.08062440251924
H         9.17057529308176   -1.41040777684421   11.37181837579323
C         9.11910723235944    0.56057939065104   10.53766561008457
H        10.18422591727228    0.65318591395180   10.39694717770636
C         8.28906227353857    1.61070818179209   10.15968301924862
Cl        4.54166853797836    1.44605765228049    8.44226121165499
N         6.96391431552687    1.54094527415494   10.28941204536155
S         9.07393404083578    3.02025107740938    9.42593045315776
C         6.41229879458986    5.58557436958143   10.83851978472357
H         5.33657573861555    5.58429722577750   10.92039084966185
C         7.17047501056413    6.66243209729086   11.25076681527165
H         6.68555997054966    7.52291071247300   11.68208921950443
C         8.54953666890579    6.61765890485487   11.08061659565816
H         9.17057464701106    7.45092060956706   11.37180163686242
C         9.11910605943850    5.47993095122488   10.53764636473888
H        10.18422575333138    5.38732997146574   10.39691246303237
C         8.28905755850448    4.42979886571229   10.15966851980667
Cl        4.54167591260761    4.59449024694219    8.44230815279257
N         6.96390836539230    4.49955781293769   10.28940235151035

