67
CSD_code = VAFLUL | q = 0 | S = 0 | Stoichiometry = C27H36CuIN2 | MND = 2
Cu       -2.72880702989312    3.17031964103744    5.69488405333781
I        -2.72878897559705    3.17030353412330    3.23623995900749
C        -1.90546595733478    5.44414088306382    7.99382639856761
N        -2.36451651001394    4.17829162967688    8.45414606138113
C        -2.84154320764329    6.44445877923979    7.72508993620281
C        -2.37478324391776    7.65759654315224    7.23748689210627
H        -3.07463318819877    8.44500351126077    7.00670261175843
C        -1.02483905205994    7.86443529903862    7.02950262552402
H        -0.68040674754439    8.81089238231096    6.64080350993442
C        -0.11485181634733    6.86174109369536    7.30358386366030
H         0.93464099232445    7.03323066952561    7.12404604127097
C        -0.53690095168440    5.63274393789682    7.79203473213963
C        -4.32229534296482    6.21152279561796    7.91322868205599
H        -4.47525209376987    5.25594300312328    8.42638171579817
C        -4.95618530709676    7.30313751348360    8.77733940060391
H        -5.99507646588872    7.05537621138885    8.98366233789621
H        -4.42847076236316    7.39582675649612    9.72475647099624
H        -4.93224722344096    8.26593892562880    8.27461671026651
C        -5.00653479934822    6.12658386726959    6.54666863267112
H        -4.90044406212733    7.06169271096591    6.00295959223365
H        -6.06616425565834    5.91354649586922    6.66746068569184
H        -4.56140387716977    5.33423291948650    5.94770838848359
C         0.45757229192482    4.52390399565447    8.04502073861175
H        -0.04478832609783    3.69842515304189    8.56078458123952
C         1.60803991840157    4.99016007931017    8.93877606490599
H         2.21803549336699    5.73671911197913    8.43811672071278
H         2.24644309337407    4.14604190800752    9.19008176667690
H         1.22563715976929    5.42082488353512    9.86226868936819
C         0.98123909907159    3.99404729343607    6.70770419342816
H         1.50239671087737    4.77582784176366    6.16129366492164
H         0.15776284360113    3.64031158769438    6.09035370344879
H         1.66931207089208    3.16799743256644    6.87223316736609
C        -2.72881354261983    3.17032509240077    7.63219789670841
C        -2.49849222124184    3.80714222993547    9.76571742210133
H        -2.25922483641882    4.46993358296589   10.57132731317047
C        -3.55215851274972    0.89650756522548    7.99382324917950
N        -3.09310867180044    2.16235654010574    8.45414440737546
C        -2.61608101028812   -0.10380945986119    7.72508487863312
C        -3.08284082329998   -1.31694789218523    7.23748338752454
H        -2.38299013588751   -2.10435377038563    7.00669795008151
C        -4.43278512320136   -1.52378909762604    7.02950215949603
H        -4.77721537554308   -2.47024737827865    6.64080474097486
C        -5.34277263277969   -0.52109520798370    7.30358428960622
H        -6.39226618762835   -0.69258340503186    7.12405028175416
C        -4.92072338618428    0.70790265799717    7.79203281862795
C        -1.13532829520000    0.12912599743300    7.91322036622798
H        -0.98236757156477    1.08471135949141    8.42636207414427
C        -0.50144138088885   -0.96248111760959    8.77734313750155
H         0.53745184804943   -0.71472307760459    8.98366036971686
H        -1.02915453362560   -1.05515494930563    9.72476249355699
H        -0.52538612403394   -1.92528906288817    8.27463309152493
C        -0.45108833424006    0.21404679514050    6.54665960320334
H        -0.55718005816430   -0.72106855325645    6.00296198331902
H         0.60854132487874    0.42708443374870    6.66744976485622
H        -0.89621780258793    1.00639076847814    5.94768941553422
C        -5.91519762888115    1.81674226730382    8.04501625502447
H        -5.41283709111784    2.64222530075342    8.56077362754972
C        -7.06566216322724    1.35048980509289    8.93877746592401
H        -7.67565912127958    0.60392765225153    8.43812430172326
H        -7.70406537798285    2.19460873894903    9.19008066836293
H        -6.68325617963454    0.91983011591511    9.86227108841232
C        -6.43886918657835    2.34659084410170    6.70769819237337
H        -6.96003077764356    1.56480757396242    6.16129503129593
H        -5.61539387762651    2.70032016040043    6.09034275228378
H        -7.12693978094225    3.17264359419455    6.87222393879308
C        -2.95913011503564    2.53350265320059    9.76571633486510
H        -3.19839579047332    1.87070885262970   10.57132465630545

