45
CSD_code = VAGDIS | q = 1 | S = 0 | Stoichiometry = C18H22F2IrN2(1+) | MND = 8
Ir        4.35673588121714    6.80624533112447   -0.00149549129758
F         4.42891702835587    6.93607067004123    1.94426143554176
N         2.91225799080026    8.29077869996698    0.04699418519693
C         2.84078803054690    5.10512624116015    0.68141862950309
H         2.01824153594006    5.68908888084136    1.08951946525285
C         3.54791391975996    4.26899140987873    1.71144932794630
H         2.95585436321516    3.36414152035259    1.87890628173645
H         3.55039602009579    4.83227024520412    2.64430632857867
C         5.00062980669585    3.88125770402779    1.37621343836942
H         5.50453535342343    3.65813283662499    2.31726152392244
H         5.02621378661418    2.97635236536337    0.76911778363377
C         5.78465093839426    4.95415543647451    0.66757071066938
H         6.52043670990164    5.46655037432146    1.27938831940275
C         2.23303864937075    8.61192721413486   -1.05550757246476
H         2.50447561500495    8.10429075345376   -1.96921631512970
C         1.22926510006098    9.56352453473568   -1.05431805834813
H         0.70942661938653    9.78717013195646   -1.97173687894717
C         0.91084222706685   10.20892049443138    0.13007526226591
H         0.12937413106622   10.95170862133571    0.16347284883722
C         1.62319402729107    9.87326704069812    1.27062317760983
H         1.41762998955618   10.34287504761136    2.21877934495887
C         2.61547216977045    8.91332553619820    1.18885692560933
H         3.17364657646359    8.62683588738428    2.06771674463214
F         4.28465085316324    6.93692320817142   -1.94721782659635
N         5.80340522886946    8.28819947439152   -0.04952826223398
C         5.86114774453622    5.09725777342605   -0.68819416505767
H         6.68703711623957    5.67389313138822   -1.09998937185421
C         5.14941757243327    4.26075105549663   -1.71461014801056
H         5.74154830618454    3.35652527205693   -1.88534633406440
H         5.14138524900717    4.82417090178677   -2.64741801008145
C         3.69929721827493    3.87249396086036   -1.37117111291352
H         3.19264767198327    3.63735266261394   -2.30783193361464
H         3.67812560235623    2.97490518635950   -0.75333483544998
C         2.91786014554679    4.95330845645755   -0.67293565776114
H         2.18879510365393    5.46817079956885   -1.29062443844497
C         6.48015364651638    8.60950036061631    1.05436638292699
H         6.21178208527759    8.09685038102053    1.96622825837731
C         7.47727697990888    9.56802019867641    1.05717578171715
H         7.99499304741520    9.79179462785727    1.97574236035212
C         7.79160925891108   10.22026105552461   -0.12468643833608
H         8.56687625088386   10.96966257166870   -0.15464659582206
C         7.08325449694513    9.88290817173023   -1.26711534352462
H         7.28653975394501   10.35730495460177   -2.21345768919576
C         6.09759114868895    8.91577500145478   -1.18941507208674
H         5.54216904926090    8.62826381694964   -2.06964696580543

