49
CSD_code = VAHQOM | q = 0 | S = 0 | Stoichiometry = C22H22ClN3Pd | MND = 4
Pd       -4.49977872829704   -1.68417195479359   -3.40411228892333
Cl       -3.50789819940453   -2.27302296485024   -1.43200251180312
N        -3.51386980041024   -3.04831233509040   -4.46046805981499
N        -5.19271832105389   -0.90649064059273   -5.17099347332443
N        -5.41207941083148   -0.34509631102109   -2.27165464699100
C        -2.13029338293239   -3.90142116397746   -6.30615937916979
H        -2.36238929489960   -4.90188474923406   -5.94739105818805
H        -1.09270223392801   -3.67999069142191   -6.05926780249945
H        -2.23115755386556   -3.87948879869893   -7.38799969561494
C        -3.04004600974520   -2.87648051821075   -5.67350292751369
C        -3.42860249364110   -1.80792599562973   -6.49520178545115
H        -2.93874430846510   -1.74348653048004   -7.45488833419453
C        -4.49476848476057   -0.93443976898294   -6.29043614989103
C        -4.90778924238454   -0.09233507825278   -7.47463558716402
H        -4.35466915859740    0.84644560348800   -7.47748969619363
H        -5.97141118010676    0.13309399376350   -7.44330493215059
H        -4.68439461280927   -0.61342042642777   -8.40188732695418
C        -3.37791771942003   -4.22695298823441   -3.71514627584566
C        -4.56001841589865   -4.76590548391953   -3.18956603193403
H        -5.50423459948361   -4.25163201282455   -3.40186713448665
C        -4.52659330737109   -5.90803310498011   -2.41728071907595
H        -5.44319759702367   -6.31368953385092   -2.01429741857623
C        -3.31597877832323   -6.52894162501090   -2.14760026723150
H        -3.28838752296542   -7.41841299640576   -1.53625250703229
C        -2.14241353205332   -5.98837004376943   -2.64138008404417
H        -1.19474907572884   -6.45145944473055   -2.40779489296076
C        -2.16497550693400   -4.84702967122656   -3.42332613195577
H        -1.23943710954270   -4.40522518195764   -3.75915498817664
C        -6.32964033053407   -0.13357204628181   -4.96170176732611
C        -7.45893114644798   -0.77625950126905   -4.43689205030640
H        -7.41426519148351   -1.85280808659297   -4.29112935900707
C        -8.58973575778333   -0.05774518128439   -4.10941203753470
H        -9.45291074792068   -0.56732838887073   -3.70643972039453
C        -8.62046278815683    1.31684491199411   -4.29237795633716
H        -9.50321283401957    1.87992102360550   -4.03015777263450
C        -7.50901445906095    1.96332727635154   -4.80557164150195
H        -7.52322170539783    3.03542035148042   -4.93941258754782
C        -6.37314517075685    1.25177970381245   -5.14348152143265
H        -5.50120651903145    1.77099369459984   -5.51306586244379
C        -6.36224598188758   -0.73237469636354   -1.42324153691538
H        -6.65490108920191   -1.77828207462536   -1.47302636814076
C        -6.94090688554947    0.13494594807791   -0.51508560984610
H        -7.70874674621319   -0.21810795695488    0.15467197216011
C        -6.51248660181133    1.45309772941989   -0.47938042679084
H        -6.94333923990272    2.15506792123446    0.21804918880813
C        -5.50854222188104    1.84568004254815   -1.35119482330577
H        -5.13370093666180    2.85690723600903   -1.34796408659495
C        -4.98515739142637    0.91482574669145   -2.23019573107336
H        -4.19091067403708    1.17924676376454   -2.92562819466949

