33
CSD_code = VAKWIN | q = 1 | S = 0 | Stoichiometry = C8H20BrN2PdS(1+) | MND = 4
Pd        2.38375529815627    1.99199777113180   -0.97003457145990
Br        2.38375579469507    0.10928992067937   -2.46760081872347
S         2.38375492308013    3.76867076534693    0.58153464118440
C         0.99821521145446    3.28224253990849    1.67818249513248
C        -0.33965166221450    3.29004051143390    0.95211102007104
C        -0.55366637026695    2.06630657834194    0.05878002042255
N         0.31834799090120    2.00890466644742   -1.12110993913108
C         0.03760445471286    3.04497924900750   -2.12547644325632
H         0.99033002318781    4.00986935984097    2.49073156517808
H         1.21573001496551    2.28964372442450    2.08097584223970
H        -1.12890583024038    3.28322295173931    1.70622704467267
H        -0.44744027213660    4.21311837736628    0.38000024556270
H        -1.60135995796078    2.06097414886039   -0.26953365516978
H        -0.37910778172756    1.15704075774766    0.64758462414444
H         0.13912042395620    1.10309631922875   -1.57342279838330
H         0.61566832794236    2.83107928435500   -3.03290726652664
H         0.31776921265958    4.03332689934204   -1.75083006678715
H        -1.02463060873571    3.05860900253056   -2.38857518732939
N         4.44916230705006    2.00890962695375   -1.12111155631832
C         3.76929231315166    3.28223875534755    1.67818388901505
C         5.32117543987488    2.06630715987460    0.05877976356666
C         4.72990508892053    3.04498924278819   -2.12547307045499
H         4.62839191988369    1.10310364208844   -1.57342838032988
C         5.10716044598705    3.29003812270221    0.95211465847912
H         3.77717657877059    4.00986307159718    2.49073521302799
H         3.55177649621313    2.28963876793866    2.08097391083668
H         6.36886945294945    2.06097496933428   -0.26953251000579
H         5.14661537271606    1.15703937609456    0.64758100675570
H         4.15184390870700    2.83109120272853   -3.03290604547544
H         4.44973656272869    4.03333460346513   -1.75082347408769
H         5.79214070673504    3.05862335947473   -2.38856927808447
H         5.89641343115882    3.28321740524378    1.70623190703862
H         5.21495078271975    4.21311786663554    0.38000721420560

