63
CSD_code = VAPTIP | q = 1 | S = 0 | Stoichiometry = C26H30Cl2N2P2Tc(1+) | MND = 6
Tc       -0.91556525928079    2.47330209751203    6.60144618951992
P         1.43390437380427    2.73186896267466    6.10002905986848
P        -3.24405402217963    2.21851713026643    7.19790652107341
Cl       -0.75626640126464    4.22465724201342    7.99614950020898
Cl       -0.33434464523036    0.88983191027338    8.08760594889498
N        -1.42482745850030    3.63668066895028    4.98067761810043
N        -1.19227231234346    1.11743336490862    5.07414882489702
C        -1.68799352001461    3.02597818635466    3.80132640859135
C        -1.58018169650431    1.58161284333720    3.86169725618061
C        -1.05438556768210   -0.21284589231729    5.20457241140748
C        -1.29834973282780   -1.10777849226189    4.18718662218610
C        -1.71054353154128   -0.63288183777700    2.94569246486720
C        -1.84563941395867    0.73027084209276    2.78887688684681
C        -2.01826943621495    3.73875997421874    2.64971023945562
C        -2.07879846110461    5.11505115029377    2.69157191814465
C        -1.80777613200502    5.74172107691523    3.90274838975172
C        -1.49187196728430    4.97671684643567    5.00244151784246
C         2.51655908058454    3.29847020513658    7.45004859441249
C         2.31394056661129    1.22993163968001    5.54750327121190
C         1.66926996387377    3.93832950841023    4.76691396227270
C         1.55573074045754    3.54153954806627    3.43721146645354
C         1.59721426032197    4.48114056458987    2.42375424298284
C         1.73735498780441    5.82568570488617    2.72732174508436
C         1.83479979982653    6.22884702220670    4.04886552962854
C         1.79180201005059    5.29225769554997    5.06574563809346
C        -3.98287352842255    3.43733575124026    8.33400994555367
C        -3.72797525951172    0.64569885194772    7.98379660295426
C        -4.26764745612038    2.32112755860838    5.70101976203974
C        -4.55429782923537    1.18270756826369    4.95417673863380
C        -5.21829152824668    1.29003892553235    3.74531013467258
C        -5.58871502258445    2.53421325972029    3.26281187567415
C        -5.29872930640896    3.67327843772714    3.99645060166992
C        -4.63755586873269    3.56898258129391    5.20587590469991
H        -0.73173351200708   -0.56254748614042    6.17475535705561
H        -1.16828501094415   -2.16278580468597    4.36438132799347
H        -1.91526327999299   -1.30819182689440    2.13113031984766
H        -2.16100398653731    1.13937986274533    1.84445009251530
H        -2.21951131683250    3.21464134143027    1.73126259095279
H        -2.32751871428656    5.68581036076044    1.81199186246336
H        -1.84018325268674    6.81474494358358    3.99397780249406
H        -1.27951082079007    5.44812146537742    5.95083281052115
H         2.10212265946048    4.18438432577738    7.92675958277040
H         3.51296035193284    3.51369297253512    7.06380052882808
H         2.57331227264727    2.50176024175159    8.19223990783240
H         1.80712161970988    0.76514630085518    4.70452545194677
H         2.32372732043391    0.52451377328156    6.37803147149180
H         3.33684332596055    1.48043793617137    5.26788026036941
H         1.44205274028317    2.49446198734844    3.19276870706674
H         1.52092772129101    4.16420136990066    1.39434439005930
H         1.77174990420845    6.55711974505064    1.93468559157735
H         1.94262704861688    7.27588334859293    4.28810261077187
H         1.85507811868463    5.61356504978025    6.09462299376253
H        -3.74612248377116    4.45090589492775    8.01734571580212
H        -3.55369715836611    3.28125680804245    9.32355651673685
H        -5.06338399228212    3.30064236405475    8.37557837038891
H        -3.32553016936981   -0.20111909411755    7.43155285666702
H        -4.81390636453074    0.57402728962145    8.04094643242318
H        -3.30580025621736    0.62759375540444    8.98806304785690
H        -4.26585730834930    0.20803793806733    5.32041296823054
H        -5.44741117379222    0.39980743253576    3.17909931379899
H        -6.10699223906690    2.61631862196773    2.31995998323609
H        -5.58923987423839    4.64455528637328    3.62546962148396
H        -4.40962259532055    4.46135289913659    5.77076771920366

