61
CSD_code = VATVUH | q = 0 | S = 0 | Stoichiometry = C22H34Cl2Si2Ti | MND = 12
Ti        2.77911973469913   13.29407441242584    6.91925032589335
Cl        4.46131264923147   12.11189885563485    7.76365128939399
Cl        2.67555456160818   14.67157210840434    8.68719040997385
Si        1.31094750965233   11.76335379743890    9.98885058153652
Si        5.30004535249739   16.07779950147467    7.15256850665513
C         3.05317709124881   11.81578095230437   10.76185769498411
C         0.18012705529870   13.06106581126854   10.81828142732648
C         0.57091105258251   10.01721153428902   10.25698935702181
C         1.26353543241336   12.05065151189805    8.12005158661822
C         1.76493804527847   11.14217570990084    7.13493137899408
C         1.39725400621227   11.66717132777807    5.89281862726621
C         0.52277724691640   13.09433838949897    7.46086585137174
C         0.63396180229803   12.84055290474165    6.09417446498585
C         0.31598076704088   12.97684867718770    4.60754230378118
C        -1.16582360820798   12.94979018285662    4.25922015662221
C         1.02027791489459   11.58374537355625    4.42898306626352
C         1.10916232278990   14.18118752397741    4.02698705328870
C         0.32809665321185   15.47954976933896    4.27241045075287
C         1.35458736387619   14.04710592266291    2.51847100685873
C         3.52501906869016   13.34892305815463    4.63273810694859
C         2.43501844165084   14.24725560916304    4.76639980130874
C         4.58721900060089   13.81769933791207    5.42459529914782
C         2.82662015203631   15.22153845290662    5.71366660929611
C         4.17140276259444   14.97323860337364    6.11619699088111
C         6.69803565197792   16.62516396336540    5.96305862360945
C         6.08165654970395   15.13219481429693    8.61327947021500
C         4.33731555584650   17.62704127099796    7.71786445367086
H         3.52656482379835   12.78031131169474   10.60039754077550
H         0.14895688739479   12.90198931193029   11.89107858672553
H         3.70251117019850   11.05775489270901   10.33318464578852
H         3.00227027203887   11.64275290151132   11.83288431177195
H        -0.84017178945310   13.00242147282101   10.45090323821938
H         0.54572350403091   14.06852792524733   10.64526526199337
H         0.47161915571812    9.81093144763762   11.31700325376105
H         1.20235479056674    9.24375864398858    9.83176314798232
H        -0.41350112310998    9.92188968377407    9.80971737976582
H         2.27602006564489   10.21342198462304    7.35459725827353
H        -0.06164794506277   13.85061920405537    7.97034744696503
H        -1.68315345059861   13.81317851712566    4.66811702189814
H        -1.62296059498763   12.05812372398465    4.68417858569501
H        -1.30856124022250   12.92805843386972    3.18093556187970
H         1.81170738844679   11.50149984606660    3.68840596816381
H         0.29842110724769   10.78608352378845    4.24271320102249
H        -0.55942565179756   15.51540571623812    3.64618449991434
H         0.94779532281701   16.33717194415236    4.01944741646329
H         0.02533122027001   15.55947111135612    5.31614773151205
H         1.91574354658587   13.15056997723179    2.27322292010313
H         1.92164114029820   14.90585141124816    2.16538945947002
H         0.40989707448340   14.01634119148115    1.98067037362217
H         3.61994514990804   12.53760629563423    3.92504733959962
H         5.58369617548832   13.39593225666307    5.44706113411586
H         2.26938453383704   16.10362046583279    6.00212081091829
H         7.36850097275812   17.31601933047732    6.46247675892871
H         6.30663319136372   17.12564672573257    5.08303519115038
H         7.29032417686523   15.78109346187242    5.62473139306438
H         5.35736171193975   14.95751866425711    9.40327562690451
H         6.91341526708863   15.68608372455635    9.03820691353676
H         6.45527851905866   14.16179667467131    8.29573953952186
H         3.50236971518436   17.36340658761444    8.35872818507710
H         3.95095613381317   18.18776683059619    6.87170740796995
H         4.98766864167703   18.29084542875172    8.27761999271141

