19
CSD_code = VEBBUZ | q = 0 | S = 0 | Stoichiometry = C4H6Cl2N4OPdS | MND = 4
Pd        1.09131201920502    5.02222608305914    0.75029429461799
Cl        0.10996423876607    4.94353279266606    2.72151135471671
Cl        3.07539771530933    5.17653398979083    1.70624171976073
S        -0.86968163049466    4.87838826217923   -0.55725985649463
O         2.91579179365815    5.23081326811656   -3.75022720110707
N         1.17832841599838    5.05852975206645   -2.31968307562860
N         2.07317702895149    5.09632307658609   -1.23708763940562
H         2.65333391512841    5.94529734521622   -1.26872861826066
H         2.72645533468841    4.30195156036826   -1.26681333500905
N        -0.54610131844160    4.99502912941232   -4.43170472233005
N        -0.96460723120497    4.92936941277174   -3.17588713910190
H        -1.96724948253833    4.85636928306897   -3.04355552158453
C        -0.17600563707278    4.95917759704515   -2.06356919170765
C         1.72092876815385    5.13700323024254   -3.61313301314390
C         0.70942598582322    5.09362237163642   -4.68610671839698
C         1.18320759698332    5.16792571347710   -6.08983784043054
H         0.33719914207746    5.14230168787624   -6.76816981019189
H         1.85348049850352    4.33482323144495   -6.29669517485129
H         1.75484284650584    6.08298221297583   -6.23728851145124

