61
CSD_code = VEKHAU | q = 0 | S = 0 | Stoichiometry = C26H32Cl2Zr | MND = 12
Zr        8.41198623147405    0.74259767926826    0.82973117491546
Cl        7.45839960556119    1.95299257314897   -0.94952312255623
Cl        9.95243777259752   -0.02736010196896   -0.77471509173505
C         9.08317985724356    1.35561977792435    3.16004887559650
C        10.24105362338393    1.08228649114634    2.38263738064440
C        10.37478979162027    2.10766765865631    1.40030692818125
C         9.26678998684267    2.97276590375828    1.52950234788936
C         8.46101008214223    2.49790321079730    2.60502664891372
C         7.35475980263913    3.39660578321994    3.06244452516131
C         6.64186026754828    3.89051832710300    1.78625608611664
C         7.77334146786034    4.92994241098824    1.66250655220928
C         8.95822509669518    4.31315705294980    0.90876407150817
C         7.94550358602701    4.83462190116066    3.20236809741699
C         7.00173374147847    5.77632303010314    3.94534903555296
C         9.33802683996234    4.99113797359693    3.79866784299800
C         8.57105632463732    0.56519640204809    4.33075042809340
C         7.16139877671257    0.00294060837784    4.02917256069544
C         7.06323702275522   -0.42124359506408    2.59132370777490
C         6.20033876365625    0.11136091220305    1.59574648570851
C         6.41259513210201   -0.61128008556166    0.38453449272074
C         7.45050636519279   -1.54035695533723    0.61538088242436
C         7.86278765396093   -1.41049692646559    1.97378167172744
C         8.78105161617842   -2.46819484570429    2.50156137515238
C         9.87566390185989   -2.66735289400709    1.43323653864199
C         8.86316030113552   -3.55949739755403    0.68822335884514
C         7.97369619936875   -2.69036005749180   -0.20975682114083
C         8.20215642092935   -3.85000728633060    2.06263069007832
C         6.69473756502863   -4.05799853620106    2.12629548821982
C         8.87234764610284   -5.01353709859501    2.78822973694559
H        10.98774466307788    0.32687987124056    2.60563450789912
H        11.22603708771119    2.24560646483668    0.74214576691874
H         6.75912900684895    3.01204387032489    3.89108829784707
H         6.54922339531153    3.17032062297279    0.96932910337564
H         5.67309257063077    4.34409919273778    1.98096930661370
H         7.51724515597809    5.90886263403286    1.25615906493852
H         8.69855273114216    4.21093140483752   -0.15106704998281
H         9.83183397280018    4.96933649130912    0.97347779095114
H         7.35851132587338    6.80077459282301    3.85898619416462
H         6.96947489187155    5.51600077144702    5.00191428012388
H         5.98939317870464    5.73799174496272    3.55530542582497
H         9.70373789901213    5.99925307959164    3.61410739941796
H        10.04989345868766    4.28501510984476    3.38470719969859
H         9.29601186005815    4.83592889818794    4.87525015128045
H         9.26275613786886   -0.25432488577207    4.53891658877018
H         8.52597085930284    1.19635060454064    5.22334874005357
H         6.40443787010484    0.76391707827457    4.23135651735158
H         6.96197022246779   -0.84678141761604    4.68886496670604
H         5.39734005624975    0.82011265170782    1.77006778042640
H         5.81453503988080   -0.52484740485559   -0.51643283136796
H         9.07062874669640   -2.34917381860486    3.54628404114296
H        10.21468121346825   -1.76998680440193    0.91031565947263
H        10.73739253963444   -3.22199279484293    1.79640586711861
H         9.25399336465547   -4.41707033554135    0.13973900283806
H         7.14100733310478   -3.28084230895971   -0.60464093502557
H         8.56126224772269   -2.33371682633075   -1.06350814195028
H         6.42665850275112   -4.96021034076854    1.58015298099012
H         6.14069571383958   -3.22464885570901    1.70768937971491
H         6.38497214683013   -4.18246670631763    3.16239863082304
H         8.58053882903921   -5.95450117824196    2.32589226250196
H         8.55721140849542   -5.03517004166241    3.83004724522490
H         9.95553512747988   -4.94694328021981    2.76251285744007

