43
CSD_code = VESFEE | q = 0 | S = 0 | Stoichiometry = C19H17ClN2O3Pd | MND = 6
Pd        1.52121062277811    2.02002710750240    3.60579672801352
Cl        3.67155869513059    2.62957649107259    2.77150936851268
N         2.58742429099221    0.09938474088487    4.01523040824080
N         1.46086858271616    0.88415825058501    1.68866595904613
O         1.63087136259115    5.51804626472815    2.17078564665451
O         3.44140491117233    4.19430553782333    6.03060068396983
O         2.75865709507159    5.09902559231719    4.08001107932457
C         1.34727183472011    3.51800623941729    5.01954828046826
C         0.77286861862448    3.93760802393441    3.79258287596994
C         1.72705912727036    4.90953588235407    3.19849081288227
C         2.63700541661492    4.24471890154827    5.14349517676385
C        -0.29632288188502    1.21347912376674    4.21481550302975
C         3.22439611791923   -0.16651877794684    5.14138758735747
C         4.10224338970174   -1.26088040254081    5.23540760457360
C         4.31541323386729   -2.06186471391651    4.14360169650082
C         3.67746189987102   -1.75689752583974    2.92854083606416
C         3.88837929561458   -2.49051668761439    1.72781407198254
C         3.32080054021028   -2.09815257682604    0.56129862367755
C         2.49705703533368   -0.93963704665963    0.50120394509367
C         1.96047615862405   -0.43240143599600   -0.69513612951816
C         1.22823594919550    0.72632753704998   -0.66755091219563
C         0.99408198612096    1.37765206920561    0.55611710932402
C         2.21852463516277   -0.22239221341308    1.68357880854277
C         2.81755753852759   -0.63866337732920    2.91892359749781
C         2.99201023401151    0.75495156769646    6.28881637968968
C         0.23469805641495    2.65704023679308    0.63734090803244
H         0.80733849956532    3.27925533276412    5.93186832353660
H        -0.28569325839307    4.08418072301343    3.59591168643803
H        -0.76216057182169    0.73333573058110    3.35069362329831
H        -0.10250238982440    0.44460869986573    4.96663331351790
H        -1.00101279415204    1.93263759705237    4.63258571019714
H         4.60590892327168   -1.45383758558401    6.16966454976096
H         4.98337663435614   -2.90925987103769    4.19618629181437
H         4.53455519150802   -3.35497985198688    1.76634373390234
H         3.50260509173676   -2.64187240457346   -0.35391123948922
H         2.14977789876985   -0.94951520158784   -1.62452697430928
H         0.83221221311559    1.15223078818498   -1.57611364293161
H         1.92231414144167    0.94755812231379    6.40615606205535
H         3.39488434341844    0.35132209261754    7.21335518875686
H         3.48570803190429    1.71131843019019    6.08298466259784
H        -0.49095524136132    2.60831120793534    1.45441952544313
H        -0.27675459462521    2.87864088357630   -0.29511449678052
H         0.93408413475337    3.47274649805875    0.85348703265913

