56
CSD_code = VIFPUW | q = 0 | S = 0 | Stoichiometry = C23H21Cl2FeN5O4 | MND = 5
Fe       10.16983155731070    3.66164050282777    4.28464822774770
N        12.09815496099046    3.36750877924858    4.28486738372923
Cl        9.93685964111266    3.06543223894346    6.26219199370744
C        12.80700232616923    4.44810837446674    4.49327381388736
O        14.61789185748472   -0.99918606068213    1.21675164790319
Cl        9.92024857737231    2.69442303588304    2.48204523001591
N        10.67823879688079    5.32803073660115    4.47236485448370
C        12.00735242516002    5.62940716884552    4.60459948030590
O        15.19360179969424    1.04230629502373    0.89932694946969
N         8.41242239627094    4.50273114165506    4.19093808458492
O         4.70811887942536    4.19447594544505    0.63478614927340
C        12.42337311697313    6.94178940642075    4.80102665001447
H        13.47375684419137    7.16138523776940    4.90127853024443
O         4.00073465281610    2.20522775497997    1.01072789054015
N        14.60153521236133    0.17737236415179    1.50978235214397
C        11.47761054108215    7.95499981057511    4.86275228838628
H        11.78847144518678    8.97643456769405    5.01225937359266
N         4.67200462823163    3.17526270136017    1.29147167738859
C        10.13038623615059    7.64942263998654    4.73399043858063
H         9.38257552491160    8.42408629557073    4.78146676535319
C         9.74476939659347    6.32748448316060    4.53975713616396
C         8.42556821906945    5.79875440048517    4.37361071328371
C        14.29448732082704    4.47756339702063    4.62704716111702
H        14.70186461507530    3.47025874361313    4.63068066118770
H        14.56955433761866    4.97337806794514    5.55635675990475
H        14.73676609173306    5.03562129249202    3.80262391896551
C         7.20807215834460    6.66264191748266    4.42708681280598
H         6.30498386010991    6.05886004354575    4.40406434129162
H         7.19627518446001    7.34931237729250    3.58140325421697
H         7.21556878181498    7.25306019006548    5.34156863077513
C        12.68055807540875    2.11479838898568    4.05514327994848
C        13.34588122338775    1.84582974893444    2.84586119377924
C        13.85517129261937    0.55361637709840    2.68481915390512
C        13.68824499150176   -0.43630646888764    3.64950678136774
H        14.09784823143973   -1.41667504808041    3.46088140420542
C        13.01258113300056   -0.14949679460441    4.81720367011911
H        12.87783934885460   -0.90955182487019    5.56986985691889
C        12.51286797446698    1.12394252713381    5.02002895247661
H        11.98009671708628    1.37124946990005    5.92569539364308
C        13.43273844360723    2.88961342926807    1.78168398901311
H        12.67685239186218    3.65506579339667    1.94101901754712
H        13.27817665692805    2.45129030764843    0.79863050713921
H        14.41967397130000    3.35072634825865    1.77335503858369
C         7.23461074661253    3.78919126506267    3.93341362175894
C         6.58921242393838    3.89642407339204    2.68892353110955
C         5.44611104259145    3.11183533436876    2.50641476601205
C         4.97917948561009    2.24027085124458    3.48675234244828
H         4.09554977983519    1.65607297013113    3.28087271351021
C         5.64367587698753    2.14239236283643    4.69126803958341
H         5.28915672855271    1.47105298709348    5.45674158301530
C         6.76708617876995    2.91748825978312    4.91439945626385
H         7.30421235489100    2.85689817998576    5.84871467018826
C         7.15455657327660    4.76830571603642    1.61686835491243
H         8.19933631189769    4.98956565997132    1.82157339135992
H         6.59405135856497    5.69942825426645    1.54206045569147
H         7.08894930159971    4.27877798177596    0.64804966443325

