62
CSD_code = VIYBEL | q = 0 | S = 0 | Stoichiometry = C31H23AsBr2NO2ReS | MND = 6
Re        2.88246123608132    0.33423599057430    2.80423688257698
Br        1.89460134998292    2.52307774917344    2.14486793192463
Br        5.12654220943352    1.31404684291699    2.92893987552102
O         2.60101804364187    0.47535031055976    4.42971590031912
As        3.82910989018730   -2.02958422855113    3.35281009195777
C         5.27792660854934   -2.82328289753282    2.31332851534455
C         5.58363821731432   -4.17050912666325    2.48839027512456
H         5.00965143664569   -4.76084205499383    3.19649643790664
C         6.61433233888194   -4.74581730321783    1.76865854636317
H         6.84733276682437   -5.79193487681300    1.90464333359480
C         7.34893246753327   -3.97986907806305    0.87609605246507
H         8.15236077092595   -4.43243584416514    0.31427745110494
C         7.06053906150618   -2.63628432222545    0.71320742069550
H         7.64251928394085   -2.03501830137638    0.03091564971124
C         6.02774159916372   -2.05585190942222    1.43184118780901
H         5.82174259712680   -0.99755927284073    1.32007815822201
C         2.38459540561618   -3.31778746414043    3.19508082622616
C         2.26443073376684   -4.20596932098122    2.13196141480583
H         3.06304421883377   -4.27852198133515    1.39995172031967
C         1.12579307013142   -4.98415820518470    2.00226149804449
H         1.03950362358108   -5.67348928790328    1.17500506706866
C         0.09570759910697   -4.87006700578157    2.92095976186629
H        -0.79474478805170   -5.47062840885764    2.81050611411128
C         0.20048885247855   -3.97489849659148    3.97520738213503
H        -0.60839654380973   -3.87333748039046    4.68446434437275
C         1.33736872575080   -3.19976136993697    4.10838727548934
H         1.42490214611054   -2.47860159032952    4.91768955547527
C         4.46924076380295   -2.32625565181998    5.16653875783993
C         4.16750977088934   -3.48090366408253    5.88051393272236
H         3.53708969755950   -4.24458737978093    5.43488408737774
C         4.66131248344940   -3.64941959752858    7.16244673697143
H         4.42105344949503   -4.54592816669965    7.71578679591921
C         5.45655705270093   -2.67046546460420    7.73565512589969
H         5.83464354446103   -2.80364215196275    8.73845938912064
C         5.76129614768338   -1.52040209416027    7.02638000200549
H         6.37753661300469   -0.75443925489900    7.47231078934944
C         5.27004797207001   -1.34603888512121    5.74409259744922
H         5.49920988892962   -0.44080264694884    5.19169142807244
N         0.84111552222302   -0.63832900772654    2.33666607919404
C         0.61417005301622   -1.38502072275382    1.29163476612335
S        -1.02001621694568   -2.02237263173499    1.22138677327044
C        -1.38412054781015   -1.19427955843694    2.70313116622158
C        -0.25014846229897   -0.48933318602725    3.14750603816541
C        -2.57579182285859   -1.17200496030790    3.40686275006121
H        -3.43196166580263   -1.72071137945087    3.04756507467142
C        -2.63043894205662   -0.42408709773380    4.56588960450834
H        -3.54968633603644   -0.38570850196098    5.12976897266652
C        -1.51845970142938    0.28944453144812    5.01040133953407
H        -1.59117375182317    0.87614897991365    5.91269038710193
C        -0.32977773888797    0.26798520683601    4.31451757604231
H         0.53217654671626    0.82376217165264    4.65634841645807
O         3.11162547265147   -0.12474804263567    1.03111849617549
C         1.53863408748430   -1.69181665125136    0.23209694813938
C         2.77626501539884   -0.99777645039329    0.12942747759009
C         3.62354491009750   -1.27387427413378   -0.95479396134202
H         4.54769808875046   -0.72063556310362   -1.03153847181818
C         3.27993008235839   -2.22441237192992   -1.88737400985389
H         3.94878988822491   -2.43015455387939   -2.70922994478997
C         2.07804382553797   -2.91773928297617   -1.77922468653550
H         1.81458880053178   -3.66234912188043   -2.51380733066768
C         1.21935141089482   -2.64360723866867   -0.73962633273593
H         0.27960117757868   -3.17089640098449   -0.65585544209325

