59
CSD_code = VOVDOB | q = 0 | S = 0 | Stoichiometry = C24H27Cl3N4Pd | MND = 4
C         1.95453989433455   -0.32814695480613   14.03275777715825
H         2.51597155594009    0.60806517446791   14.06406221450583
C         1.80342831805173   -1.08220715932380   15.18284468951342
H         2.20053229925902   -0.71627127104566   16.11918133577274
C         1.15249054568870   -2.30541897412294   15.13925869368927
H         1.02744214963478   -2.88525385155232   16.04150769228441
C         0.65898008882755   -2.77902732210016   13.93636148313841
H         0.14404067288847   -3.72751332374000   13.89890331967552
C         0.80521589749048   -2.03578376505393   12.77892820928781
H         0.37177876394224   -2.39785686761614   11.85945917222621
C         1.45330130810614   -0.80332065214386   12.81341532848869
C         1.52873424552413    0.06663531148257   11.64829402281477
C         1.34936266783426    1.45492117582803   11.66044225649021
C         1.93678488537191   -1.57337886585763    9.77763052358628
H         0.99802003630569   -2.07357899043418    9.53271276838719
H         2.50042900731564   -2.18253080419757   10.48237004025009
H         2.50633946171606   -1.43421797443397    8.86001450569474
C         1.29679501643807    3.13555643521982    9.79429162338403
C         0.99276613948318    3.04029140443772    8.29914910096220
H         0.04697682181750    2.51592701053624    8.14908625021697
H         1.77666571847318    2.46845814578892    7.80095899549139
C         0.18158779232098    3.91820385473130   10.49810657627924
H         0.40421847552073    4.00180013785452   11.58365037110028
H        -0.77132264140367    3.39408013533472   10.37853955897131
C         2.63831541296045    3.84719264856978   10.00536330789470
H         3.43277807272042    3.28099164888526    9.51332032058931
H         2.86321370562783    3.89343586651518   11.07418350614698
C         2.55125988613643    5.25391388597847    9.41718216476543
H         3.50824888389719    5.76206280591262    9.57087060246591
C         2.25067155481466    5.16583274284600    7.92142282031763
H         2.20352943485786    6.16841585631358    7.49177289662976
H         3.04862243535271    4.62087262834801    7.41240518184444
C         0.91618409029350    4.45081320631115    7.71332225961144
H         0.70157019733626    4.37971501958109    6.64159878214681
C        -0.19608760846588    5.23453632823523    8.40678956554290
H        -0.26365998947051    6.23790240774413    7.98182553171532
H        -1.15648899547482    4.73882477381264    8.25017036927492
C         0.10611653236435    5.32311829666411    9.90182018316117
H        -0.69341131504670    5.87997546649498   10.40168780956798
C         1.44195826063609    6.03161008927618   10.12300352850636
H         1.66133555053735    6.08757462838075   11.19132030986849
H         1.39375867768704    7.05016829681907    9.73294794899692
C        -0.14491940909224    4.58337384201302   14.99653804990007
H        -0.06548570675238    5.16021630402461   14.07892101930304
C        -0.61969064368975    5.16139339202800   16.16636540865860
C        -0.69894114949648    4.39900510134703   17.32414316384876
H        -1.06491227880788    4.83036624510729   18.24229973019603
C        -0.29606109616329    3.07442181931053   17.25753069960522
H        -0.34190666471179    2.44371633173641   18.13117876133445
C         0.16367651386322    2.56692451315294   16.05510637009320
H         0.47627847852707    1.52859466487273   15.95603664184416
N         1.39885072514314    1.79259815587148   10.35559659632215
N         1.61536876593218    0.76385216027840    9.56749437000372
N         1.68494270120720   -0.28246382640409   10.35041501426288
N         0.23611992332364    3.31239014343123   14.95371931398607
Cl        2.90315979930981    3.42643000635560   13.55145851721380
Cl       -1.21615579480147    1.45885894519791   13.08274311271885
Cl       -1.10479639137670    6.81323912322117   16.17016023505908
Pd        0.84547831993854    2.43559447254296   13.27965939723344

