68
CSD_code = VUDLEL | q = 0 | S = 0 | Stoichiometry = C24H35Cl2N4O2Rh | MND = 6
Rh        0.52538624882958    2.53511680428556   -4.08884774783605
Cl        1.97045614566854    1.18879909714048   -2.86594926969423
Cl       -0.95526596624460    4.01093559532375   -5.10626620323768
O         2.23817954448396    2.03033136276542   -6.35964397167419
O         0.07724460439876    0.80898708391093   -6.24631208158590
N         2.00479859221457    2.87164645877086   -5.33961561593524
N        -0.33176698718033    1.07471914550045   -5.05841394517818
N         1.55866303020803    4.29324466134995   -3.14545613476919
N        -1.06857916428998    2.07733434204423   -2.73535288773320
C         2.88205488871545    3.77677687495376   -5.12424706372521
C        -1.37217232201884    0.51082787749900   -4.56119206263004
C         2.63587279662616    4.80285790188121   -4.03726632135591
C        -1.75156108874718    0.80721126094573   -3.12681521624677
C         4.08501989377049    3.85169070258037   -6.00689704918987
C        -2.14038118018688   -0.48192573198566   -5.37777285334077
C         3.91309539514022    5.02509614892340   -3.21618293834727
C        -1.27676008234613   -0.38353965736335   -2.28446564527185
C         2.22754720082541    6.09059437618239   -4.76402504336794
C        -3.27022135745240    0.97999925947942   -3.00505457792002
C         0.71814925374455    5.31403268790007   -2.50138721768901
C        -0.79700121068703    2.23626134233820   -1.29670925653024
C         1.41380149192590    6.11038421065147   -1.42511035787316
C        -2.02339483148458    2.51181874536380   -0.46313140472242
C         1.45232417960030    7.49765350418338   -1.47163500423614
C        -2.33890304885244    1.71534472220568    0.62963009842359
C         2.08833469007541    8.21884312621669   -0.47562884720777
C        -3.46085666577750    1.98302815831156    1.39525329944933
C         2.69103169066846    7.56001383857437    0.58168423650724
C        -4.27890027166303    3.05317115827058    1.07756237901781
C         2.64244982708666    6.17726763446822    0.64709866600794
C        -3.96365640685904    3.86311417983760   -0.00098978145033
C         2.00370211376332    5.45838324305595   -0.34633671467790
C        -2.84061146505593    3.59770383275929   -0.76258243474227
H         1.36626185780577    1.43297512491209   -6.44564390326913
H         2.03202505214742    3.76062703520835   -2.40959423977309
H        -1.70628395754413    2.83109920671068   -3.01722535210041
H         3.76856143819871    3.75118988833303   -7.04496226456148
H         4.73473778713438    3.00295237502604   -5.79260570962816
H         4.64197906593032    4.77232776566874   -5.87840054127217
H        -2.58029637070357   -1.26092550914329   -4.76221520285855
H        -2.93458432011735    0.02457403134577   -5.92665535202410
H        -1.46525192285602   -0.92708754341602   -6.10679480061793
H         3.71926905590989    5.72312983851779   -2.40557465316535
H         4.70949585307635    5.43707749497848   -3.82802647288691
H         4.25674092699019    4.08124436684428   -2.79626640782297
H        -1.67292866532824   -0.33679681812966   -1.27400801258249
H        -1.62793577500160   -1.30640666024124   -2.73754314098256
H        -0.18956820266232   -0.41480758915347   -2.26246756461279
H         2.19476839605574    6.93240501914466   -4.07880967763929
H         2.95585922078685    6.31604634070166   -5.53807645772084
H         1.25977664629957    5.95670370224798   -5.24221832874360
H        -3.54778306307569    1.20868780552303   -1.97928366104381
H        -3.78277139587864    0.06898498062785   -3.29832146209999
H        -3.61051639065241    1.78675671559554   -3.65202925951497
H        -0.13337606117921    4.80364059160522   -2.04205197103007
H         0.30351366427565    5.96844515621261   -3.26598392406028
H        -0.11391972590684    3.08209174221934   -1.17650096804758
H        -0.26550643375426    1.35831026138592   -0.93365333062644
H         0.97411687468059    8.01933469295171   -2.28864689115654
H        -1.69999243740155    0.88253505646554    0.88739115499944
H         2.11337679135108    9.29719156247631   -0.52681861807960
H        -3.69626113701986    1.35311845475954    2.24013974100234
H         3.19145448704753    8.12157448518665    1.35591210512190
H        -5.15667270849161    3.25924399033696    1.67114604530660
H         3.10045832314934    5.65795700649512    1.47552966670913
H        -4.59232794338594    4.70552244763425   -0.24780241520560
H         1.96709163816651    4.37914891958295   -0.27861870056877
H        -2.60259010694662    4.24290411305842   -1.59786046067871

