65
CSD_code = VUGDOS | q = 0 | S = 0 | Stoichiometry = C22H39INPPd | MND = 4
Pd        2.89967560437818    6.31551130841560    2.78165296944864
I         4.52490514389632    6.64337817498411    4.83605166267408
P         4.16700094514133    6.95048760706408    1.06047800951088
N         1.21608780128534    5.53626418414735    4.03938419465436
C         1.51828300687796    6.16929271023697    1.35606579041689
C         1.68215029462120    6.62195381800268    0.04906453457466
C         0.65006391983739    6.49953178992272   -0.87068163570487
H         0.79068365784236    6.84703934142013   -1.88552110849227
C        -0.55841095838669    5.94393080159354   -0.48843531267527
H        -1.36197606123789    5.85188250963966   -1.20429512790191
C        -0.73854733653697    5.51672733251289    0.81362390955131
H        -1.68500225769358    5.09229639348680    1.12081251195790
C         0.29503096613015    5.62433719889435    1.73705795119571
C         2.97442212104114    7.29950242287891   -0.30692274316038
H         2.79570702489752    8.37914318679143   -0.34767317285812
H         3.36342655007701    6.99317991283764   -1.28243427760880
C         0.11588289435875    5.11958190410540    3.14406264381431
H         0.07694025207963    4.02460084893094    3.10979351961975
H        -0.84931647209690    5.45663166918549    3.55043520186816
C         5.16287450703045    8.54885047946269    1.16546980398005
C         5.15097434055505    5.46655310844947    0.44836947601620
C         4.24585912445545    9.46218137736356    1.98940982411073
H         4.12104110199163    9.06194746188600    2.99806478991471
H         3.25923048702822    9.55526470565219    1.52832180706494
H         4.67628470267076   10.45866597702991    2.07473911144507
C         5.44603123458163    9.18242471411850   -0.19810637240740
H         5.98260127970414    8.50319782604019   -0.85441152674381
H         6.06792077520873   10.06459255028461   -0.04930833565493
H         4.53761086707531    9.50469100842683   -0.70068311754484
C         6.48179718446260    8.35113247422140    1.90983279820252
H         7.20409963428014    7.81206996706538    1.30068813610915
H         6.33087148295589    7.81323985811340    2.84210760583147
H         6.90987687408210    9.32259306929212    2.15423466514974
C         6.05500189057369    5.75813697422848   -0.74476683408237
H         6.87404045186587    6.41767178227885   -0.46851352574721
H         5.50038510111419    6.20727246906615   -1.56711768977577
H         6.48687171114700    4.82482083414194   -1.10517836816100
C         5.96355753076888    4.92824835915538    1.62698951779802
H         5.30039986678727    4.73084204506553    2.47455596847167
H         6.72972104096956    5.62854626589203    1.94791760840408
H         6.45009822853592    3.99299987839133    1.35248450990196
C         4.10799575899559    4.40755135414721    0.07394089559371
H         3.39621086578614    4.26867957688535    0.89714333041218
H         4.60041341232939    3.45417038062465   -0.11377880071100
H         3.54846047307250    4.68128132267469   -0.81815424743019
C         1.65934790453425    4.40179083160174    4.86116668686279
H         0.79657082086327    3.89384005625694    5.31822938534809
H         2.28485445387466    4.78391005254679    5.67222135953106
C         2.49542804350826    3.41007610704949    4.04605380684135
H         3.19213615747551    3.98947477682804    3.40538011460144
H         1.85948173586209    2.81071868027013    3.38842511336502
C         3.30224995853582    2.48982573928824    4.95257011023185
H         3.87213382951939    1.77780921632899    4.36032401602580
H         2.64363145500386    1.93498677450313    5.61818914724488
H         3.99721624689126    3.06818167101128    5.55745956225280
C         0.80010480076453    6.66493560298168    4.88220925121546
H         1.54697769501404    6.80344935638366    5.67050534428873
H        -0.16267843866240    6.44380794123018    5.37128422278303
C         0.69203425072181    7.97280321805222    4.09356349212082
H        -0.07812824430165    7.88616731278186    3.32072424105282
H         1.66465276004083    8.17288384945605    3.59320562786588
C         0.36585940456211    9.14088266186321    5.01529176901441
H         0.30068181781309   10.06555488812392    4.44696495325023
H         1.13907244739072    9.25604452433770    5.77199661216274
H        -0.58606412399116    8.97895780410739    5.51786463291157

