65
CSD_code = VUJKAN | q = 0 | S = 0 | Stoichiometry = C30H28B2Cl2N2Zr | MND = 12
Zr       -3.08887389675064   -1.43670466350008    3.09293883694335
Cl       -4.34953150340703   -2.41809969789150    1.39033278645676
N         1.20957052764844   -2.84683584582004    3.49453581516226
C        -1.30131437403661   -2.65326958073392    4.05500787197765
B         0.11603877434623   -2.03307916665527    3.77709778572929
Cl       -5.05676243796131   -0.70353996290897    4.11279074036837
N         0.75182436397727    0.59780910083462    4.40778460669081
C        -2.03173853848657   -3.67620719789810    3.34615117421523
B        -0.00386399142908   -0.35739282400349    3.73365349796106
C        -3.29705510052941   -3.92122007340486    4.00193735146183
C        -3.36141140704056   -3.05810928982085    5.15106026892949
C        -2.15225172520214   -2.26631728182077    5.15822948030408
C        -1.74368455894470   -4.37314516491466    2.15302996380718
H        -0.81749960381575   -4.19011678536470    1.62438885351797
C        -2.64622164118403   -5.29492505465085    1.67871337979837
H        -2.42870525667619   -5.83392452965207    0.76831313124826
C        -3.85411607531369   -5.55067196497680    2.34253341228955
H        -4.53422843696529   -6.28151271422659    1.93288294173494
C        -4.18966521769539   -4.86829130894099    3.49023633608149
H        -5.13108880734946   -5.05358051448265    3.98947321765306
C        -4.31332946266268   -2.90521562092715    6.16358568695538
H        -5.20387325376743   -3.51817621176619    6.17154644784075
C        -4.10363598323731   -1.95766424659359    7.14039837330952
H        -4.83453298417641   -1.82131617384257    7.92227794277934
C        -2.95219698048255   -1.15820058573159    7.13567637357145
H        -2.82749753659912   -0.42245182470985    7.91717977184273
C        -1.97688793763746   -1.30407147191628    6.17630888565107
H        -1.06490509020536   -0.72116851256733    6.21512520418411
C        -1.26515684057672    0.05751649268018    2.89238250510582
C        -1.53606637735532   -0.41443275198939    1.55260276147382
C        -2.74762750181189    0.19286319820392    1.05026117707212
C        -3.27604835466416    1.01968074524923    2.10222740895220
C        -0.82991798129976   -1.30981754966684    0.72023850012196
H         0.09496985563286   -1.75315388129766    1.06821251692661
C        -1.30639667441193   -1.56618308078495   -0.54475322128605
H        -0.77381552068128   -2.25214301250146   -1.18774779741694
C        -2.46165452094419   -0.94194365641884   -1.03531611658533
H        -2.78950885997923   -1.15880833591518   -2.04011725975816
C        -3.18036579985895   -0.06509005118576   -0.25390934480187
H        -4.07164994776675    0.41218637559217   -0.63689120723901
C        -4.42656974086005    1.81028213127586    2.18413326124286
H        -5.10429058223263    1.87279474811819    1.34352515263360
C        -4.68342161001075    2.49720530713593    3.34930572999544
H        -5.56943412541366    3.10796947823734    3.42958749623232
C        -3.82058362622222    2.39834695714879    4.44964477828281
H        -4.06821496615829    2.93348140880438    5.35461933855491
C        -2.67968743070927    1.63307835613581    4.40509659046699
H        -2.02788427198127    1.56965792781879    5.26643104874146
C        -2.35938674140423    0.94037564747080    3.21775047656468
C         1.23574422775971   -4.28835507101391    3.62192118520146
H         0.29232684853559   -4.64756838665666    4.02154657089821
H         2.04153909193161   -4.58642145607583    4.30028584720498
H         1.41927583936565   -4.76677282020919    2.65496541211740
C         2.49105921648216   -2.33790953391364    3.05654462078553
H         2.44194789464914   -1.25950620666514    2.93776622510323
H         2.76841824405610   -2.78541357399799    2.09665360799298
H         3.27621939445861   -2.58584107654584    3.77816308531904
C         0.61455177740745    2.03110212076008    4.26047593014194
H        -0.12942205829291    2.26167205605016    3.50410011205809
H         1.57193600381695    2.46630695083234    3.95661235990443
H         0.32007338838545    2.49856037070503    5.20513583981410
C         1.80904335251979    0.26741686790718    5.33848332822832
H         1.87581221718900   -0.80991946147201    5.45816747529799
H         1.60807100663504    0.71820658822327    6.31571552801299
H         2.77205330940018    0.65157534682836    4.98678893819919

