23
CSD_code = VUPMUQ | q = 0 | S = 0 | Stoichiometry = C5H10Br2N4OPt | MND = 4
Pt        3.10200607690881    3.71185986955177    6.02690441584253
Br        2.38794073865441    5.70882833505077    4.80053833073358
Br        3.46947977380657    1.77313650243841    7.47867620774094
N         4.08626608628275    4.91980410548328    7.40581708228585
H         3.72460823642669    5.87640369888956    7.40443863635190
H         5.06809542514734    4.94732985088142    7.11762434364203
H         4.04298152102925    4.53351853719737    8.35165728333534
N         2.82894719947961    1.32556038394915    2.70054389887827
C         3.81566436659096    0.89861232371629    1.73421411383598
H         3.50141434204365    1.17087977030314    0.72676262170466
H         3.96236967243488   -0.18033157820578    1.79274428805700
H         4.74996467299594    1.40353580483912    1.97512855076188
C         3.24207802530942    2.16404570348488    3.73794657437187
O         4.39044485181017    2.54147503600564    3.83596368591515
N         2.29154564237338    2.54260014401637    4.63830657895044
C         1.02389215834838    2.15958210830936    4.56797932016923
N         0.19039867564974    2.60014543307151    5.51270750198229
H         0.57305132603608    3.21081602958782    6.22889451563527
H        -0.78269237701923    2.35692200677702    5.51976482136408
C         0.60824454173553    1.30721843796240    3.50853697105939
H        -0.41474668544480    0.98588273589385    3.43409379332977
C         1.54708735098119    0.92094995396456    2.60807742147183
H         1.31075837836574    0.27322480679352    1.77667904256227

