43
CSD_code = WAFCIS | q = 0 | S = 0 | Stoichiometry = C18H16ClN2O5Re | MND = 6
Re        3.60417509086767    5.50654962271604    6.37271342487091
Cl        4.20774994209465    3.49742722056830    7.24662086588654
O         3.22441915473996    6.27617442183273    7.79385164003899
O         4.17999829653217    4.97494823372259    4.63674406543852
O         1.78045255642793    4.71230640256325    5.87765480238524
O         7.82752996873844    6.30410455554237    6.03034534417659
O         1.80004903507153    8.57977472857419    3.95424218240954
N         5.68543725221378    6.01981963147653    6.54440706870331
N         3.01188123320354    7.27878198981595    5.27920045817784
C         5.11636332552950    5.25536464311272    3.78739427101810
C         6.34777821905516    5.83552945771420    4.20651249696736
C         7.34300521071369    6.11780280466026    3.26692475062758
H         8.26831786520687    6.55080152227865    3.61485241290804
C         7.14174275516193    5.85800228696709    1.93008080944808
H         7.91157944042965    6.08813968466357    1.21049627815944
C         5.94192279796087    5.28807077147929    1.51128410425764
H         5.78583995568651    5.07900198822101    0.46323721033900
C         4.95156989169944    4.98513518511476    2.41634185137898
H         4.02093884763494    4.53814825829365    2.09988956502173
C         6.57989173990658    6.05622089109197    5.61318735120342
C         7.80382359401661    6.42202898971667    7.45433367369580
H         8.15715959551244    7.42232130134258    7.71968601537228
H         8.48370248046195    5.67507614661666    7.86956280007167
C         6.33282252108451    6.17834310864802    7.83543903792048
H         6.17934558103032    5.26284444724315    8.41317296635024
H         5.86846263400861    7.00891113555914    8.37099255976232
C         0.90795503807063    5.14910664322679    5.03446659340091
C         0.91808222808197    6.40631634082264    4.36198502168405
C        -0.11946709541567    6.72372023722994    3.46490470397887
H        -0.08468003079268    7.68320823631636    2.97213491667846
C        -1.14593767029856    5.85180992943645    3.21381234161202
H        -1.92916040250015    6.11450680153348    2.52006602253694
C        -1.16880566236215    4.61794830800154    3.86825039385986
H        -1.97481468795504    3.92445846792334    3.67768932777289
C        -0.17635992194152    4.28047730441302    4.74801266337335
H        -0.18054340201810    3.33175979741103    5.26214057416273
C         1.94115904248265    7.39106718784529    4.56491656082194
C         2.90294068142582    9.40520844368577    4.31336160117962
H         2.51673060109038   10.29509148422303    4.81701892652205
H         3.42225764708893    9.70362015937495    3.39850082975720
C         3.76020303149074    8.51642018660906    5.23298754512337
H         4.76017034554984    8.33135588039679    4.83078208583241
H         3.85591127301264    8.91239516201484    6.24670188511390

