17
CSD_code = WAHTII | q = 0 | S = 0 | Stoichiometry = C9H5AuClN | MND = 2
Au        5.22205731119673    1.76684512264417   -3.10359655628404
Cl        4.30703444873107    1.76711262007162   -5.10692137647504
C         5.98677839820411    1.76657909637128   -1.40403234695424
N         6.44734161255702    1.76660771516555   -0.33467419577060
C         6.97974262093640    1.76665070869616    0.91056858435039
C         7.24963380573955    2.98065903171702    1.54444193783009
C         7.78843730767159    2.97576252184244    2.81256145723736
C         8.06227446362833    1.76676959045900    3.45783094902182
C         8.61407198343148    1.76685297471619    4.75951711408504
C         9.08159745748475    1.76716014127956    5.86556903367038
H         7.03350405209169    3.90785430968447    1.03623164435423
H         8.00176976032234    3.90648344353239    3.31548388063908
H         9.49194082002611    1.76674111737311    6.83148726907605
C         7.24968158328997    0.55270270714979    1.54453105780171
C         7.78848538910105    0.55771769885523    2.81265231130769
H         7.03359227563014   -0.37454488799743    1.03639942530114
H         8.00185670995767   -0.37295391156055    3.31564981080893

