39
CSD_code = WAQXEU | q = 0 | S = 0 | Stoichiometry = C15H18IN3OPd | MND = 4
Pd        6.53953002030745    3.27415993047316    7.31194321803402
I         9.08227575395924    3.29385536534316    7.77359696174029
O         2.88725086963808    1.64778878248974    6.72537099971935
N         4.57509547978525    3.15720463098158    7.12878521763290
N         6.08626799634385    5.04987020821741    8.16385107531262
N         6.49603496083696    1.38403188495460    6.37225472527699
C         3.89810293966660    4.15655896104751    7.77950895899576
C         2.52481174045097    4.26555949607374    7.93255421805698
H         1.88822140637048    3.48762722140759    7.54405576106552
C         1.97782630404245    5.37078822046064    8.58449409700735
H         0.90482317159277    5.42719386816992    8.69246164838707
C         2.76566938102454    6.38013189808805    9.07778724778564
H         2.33025765417293    7.23606784156698    9.57036289767619
C         4.16466449037280    6.31386441308688    8.94540386196115
C         5.04263282685920    7.31303711835166    9.41277278981455
H         4.63703163402485    8.18513241003762    9.90428190228608
C         6.39021219824078    7.16098709530490    9.23064448375679
H         7.09312832564210    7.90621471256109    9.56688139691363
C         6.87647244162893    6.00653816352539    8.60248186248329
H         7.94329729401274    5.87865868034764    8.47239429847245
C         4.73720297193072    5.18372908203949    8.30484055977845
C         4.04894495701174    2.01611589748420    6.66141195266915
C         5.10321958754420    1.17376981146094    5.91937150437174
H         4.82560886491807    0.11447447558427    5.98823578192917
H         5.01242940942261    1.46492392188144    4.86841771656347
C         6.85343651709353    0.37521100211651    7.38517649895828
H         7.93192538641802    0.43202171218779    7.56459803313901
H         6.62485273566837   -0.63132271249273    7.00497258578242
C         6.12463576924652    0.60560388356269    8.70844207165134
H         6.37704442741473    1.60055786714457    9.12508825904010
H         6.44029893902770   -0.14675073046461    9.42789618706156
H         5.04401474677667    0.53050067794342    8.58770687282333
C         7.41435754471362    1.32211494685687    5.22001501045831
H         7.20385980450361    0.42648821051203    4.61943668159627
H         8.43584719782286    1.24102457945006    5.60159958434393
C         7.32096937818440    2.57804793579249    4.35216659860897
H         8.17430134267786    2.61723922116629    3.67982824401633
H         7.34302113525142    3.48522925321494    4.98788528101533
H         6.41432239540004    2.59905006207011    3.74962295381530

