35
CSD_code = WAVMAI | q = 0 | S = 0 | Stoichiometry = C14H14Cl2N2O2Pd | MND = 4
Pd        4.53715966382180    2.04735581591098    6.43254837886332
Cl        6.39195447456512    2.66830599342103    7.46736242710833
Cl        3.52639882735915    1.93912922238628    8.40024927340576
N         2.97817080920657    1.37439119202637    5.36824791204785
N         5.28043467598956    2.26751706419424    4.55319791381788
O         2.54108395559908    0.65100899127933    1.82149650116671
O         3.69099403942444    3.10976345211249    1.36454875344872
C         2.01185976601481    0.61862814784234    5.88999733138075
H         1.92744107857020    0.64793101319494    6.97131232946659
C         1.18155884443870   -0.15868822822054    5.10779222443789
H         0.42265043295024   -0.77354596573809    5.56297398525930
C         1.36025249712966   -0.14786101964371    3.73257196138097
H         0.77118117359658   -0.77544227349802    3.08310904859721
C         2.33319376294898    0.67356340301828    3.17801216704393
C         3.13848491430675    1.45355696622247    4.02832519528914
C         4.31809444789625    2.21698479608271    3.59493845521263
C         4.56568869219018    2.80402619717442    2.33860374349033
C         5.87755137605838    3.20870345681345    2.05000104687753
H         6.07019898454409    3.60733172607629    1.06686507894679
C         6.85858929723567    3.12803028872304    3.01192676757130
H         7.87144598903068    3.42898049817979    2.80169195166820
C         6.50181233604391    2.70181739204760    4.28310297912862
H         7.19955519517583    2.70537031345591    5.11260503616935
C         0.31791190160168    1.44946612153957    1.15185727191475
H         0.07336802451829    0.41100515319517    0.94363219333168
H        -0.16925361642721    2.07043124862877    0.40727077486915
H        -0.06143905500192    1.71251402294511    2.13734697400826
C         1.82940581038523    1.63838383695258    1.07891710091519
H         2.18063893516439    1.47940020678382    0.05406056668073
C         2.28352399625822    3.03435947281688    1.53687718142353
H         2.02684229116978    3.18335677059076    2.59553979103174
C         1.68407454680834    4.15898546109200    0.70156607266739
H         2.15546930084134    5.09891348477046    0.97651008624751
H         0.61684277816900    4.23864129954633    0.87910219579140
H         1.86615985242588    3.97708447806735   -0.35386067065623

