42
CSD_code = WEHJEB | q = 0 | S = 0 | Stoichiometry = C15H19Cl2N3O2Zn | MND = 5
Zn        0.89852452293940    8.90147948857095    7.73883028864532
Cl        2.94660987246918    9.73171094684833    8.15457920343791
Cl       -1.03934210007199    9.73412793240310    8.35942462962425
O         2.28753721784714    5.41859196182401    9.67435525231874
O         1.96262756066457    9.16119404214028    3.66212254927559
N         1.06541008586335    7.21451431645500    9.16779160365845
N         1.85570353589109    7.29062545916633    6.68322674682902
N         0.88032788894306    9.44928650337828    5.59108566205959
C         0.76190600816386    7.00187326870324   10.57056387977726
C         1.63735458915671    5.75711423489046   10.90506262802673
H         2.40645859518634    5.97329943665881   11.65056880227697
H         1.04556666240073    4.89761812257138   11.22907040076512
C         1.89078776067124    6.32682771168685    8.78186781503007
C         2.41660814821095    6.34677808663617    7.42075054286962
C         3.45404506030693    5.55645406605014    6.93469814599566
H         3.89530671553591    4.79626716469177    7.55886658464324
C         3.90393210917876    5.79869017502049    5.64420665176606
H         4.70735409256025    5.20655332460636    5.23236359040176
C         3.34506719257308    6.82605116039543    4.89675926266824
H         3.70013813569171    7.07028900535211    3.90859290392161
C         2.31248778696056    7.56108709755276    5.47178540965210
C         1.68409039910707    8.74708977748493    4.89895617659596
C         1.23823501533125   10.38310556764234    3.47709365924144
H         0.57668865124248   10.26355888276836    2.61568285323740
H         1.95768101648272   11.18091636846262    3.27742819885360
C         0.46111365251710   10.59812721791468    4.81035540843443
C         1.17066589035556    8.23979410647941   11.36460136139682
H         2.21824093172987    8.47600488113884   11.19071013810659
H         1.00661330536988    8.07414427982851   12.42644228886741
H         0.57246411708070    9.08691224895887   11.03806519850290
C        -0.73439198205115    6.73465414918620   10.72074539290572
H        -1.28685506149685    7.57904682891115   10.31591342100386
H        -0.98693502569826    6.61061507067778   11.77040581203215
H        -1.02180121848505    5.83931208025204   10.17320006995232
C         0.87895550416022   11.87487498084308    5.53531353497822
H         0.35524424386152   11.93323014299154    6.48627991272160
H         0.62777745466967   12.74541881009153    4.93454572078621
H         1.94816835211718   11.86735911191938    5.73576050117168
C        -1.05483235957184   10.55152462705482    4.63066637410132
H        -1.35054513930658    9.65517492698474    4.08929889282868
H        -1.39232358214713   11.42871787704380    4.08513297824887
H        -1.52656560641500   10.53448455775762    5.61012955238717

