60
CSD_code = WEMSEM | q = 0 | S = 0 | Stoichiometry = C30H26Cl2SiZr | MND = 12
Zr       -0.15747988661249    3.96678879752157    3.88219659479241
Si       -0.15795704498248    7.27791086807410    3.88197128802207
Cl        1.31364446463550    2.37170070706538    3.02262416586505
C         0.61358429640800    5.97065786880075    5.02734689531148
C        -0.14703400097018    5.20162335595650    5.98283338581146
C        -1.35890926461128    5.46239312601868    6.67656095116837
C        -1.82101809131252    4.56842430963522    7.59319913537722
C        -1.13672471684128    3.35322694542656    7.88986820564544
C        -1.65126927054590    2.43401736414195    8.81733904822519
C        -0.99022752954343    1.26278301098632    9.08932025311324
C         0.21111361971281    0.96697645120682    8.44150252028884
C         0.74453747494422    1.84895525048429    7.53443706084684
C         0.08936437837044    3.05498756727209    7.24305392421184
C         0.58879439794618    4.00339628353799    6.29473064886969
C         1.78332890035159    4.02952812672880    5.53135434048921
C         1.79323060503997    5.20920807493775    4.75940717118921
C         2.94718529896440    5.57334954197212    3.86864420908399
C         1.05084762613006    8.49955502196840    3.04240977269607
H        -1.88344823474704    6.39273983990176    6.51640595613993
H        -2.73756286610254    4.76993696043253    8.12935060096968
H        -2.58724200253010    2.65920501012537    9.30861246809247
H        -1.40079316789865    0.55990318055891    9.79923766196507
H         0.71605579671598    0.03577033023158    8.65208956481834
H         1.66581849858910    1.61184260308518    7.02147518185407
H         2.60241932820506    3.32389358227643    5.59048043693530
H         3.88546282740093    5.32581390339715    4.36565861177795
H         2.90884412694518    5.00115727141387    2.93561886162184
H         2.95286098616146    6.63557058464854    3.64318759261543
H         0.49142820964652    9.16601883728224    2.39400179963967
H         1.53415837350099    9.11240435077342    3.79675567116633
H         1.82874732972359    8.04661154769906    2.44206027387223
Cl       -1.62761794927540    2.37010590456153    4.74144661049198
C        -0.92935633332765    5.97015434363809    2.73706284337911
C        -0.16882176910651    5.20119781564603    1.78142703066910
C        -0.90454282197696    4.00284968497162    1.46972906853987
C        -2.09887090617982    4.02879288536517    2.23339885751045
C        -2.10878165860998    5.20845953911994    3.00535936821454
C        -1.36687588431354    8.49980749618509    4.72100648242493
C         1.04297090094032    5.46199176956971    1.08755401838086
C        -0.40534137760013    3.05458819017803    0.52114671989590
H        -2.91782659558725    3.32298542791072    2.17453493368482
C        -3.26260738826044    5.57221429335626    3.89642545242121
H        -0.80750949463557    9.16659762523608    5.36912807520964
H        -1.85022730172106    9.11228712459599    3.96638191443364
H        -2.14475511880879    8.04708256796953    5.32155936757122
C         1.50495140454458    4.56807492827580    0.17079630427917
H         1.56759216595478    6.39229082843826    1.24772468386503
C         0.82056304192264    3.35294940953861   -0.12595103049208
C        -1.06067908309507    1.84868110868129    0.22959900741258
H        -4.20096466191658    5.32535738592600    3.39923108862675
H        -3.22440447304175    4.99921604909519    4.82896120749454
H        -3.26802814482196    6.63422723897377    4.12280186216415
H         2.42144881226752    4.76959982755776   -0.36542920033629
C         1.33477763504441    2.43397702349645   -1.05384422000433
C        -0.52763396780586    0.96698136063550   -0.67795734372034
H        -1.98182349181112    1.61146971757117    0.74275497784862
C         0.67354004344342    1.26290118617965   -1.32603640991952
H         2.27060811108326    2.65925066138037   -1.54534850318318
H        -1.03274428510734    0.03590894849808   -0.88874141906111
H         1.08380012910672    0.56024898388439   -2.03635600027091

