48
CSD_code = WENDAV | q = 0 | S = 0 | Stoichiometry = C15H21Cl2F5N4Ti | MND = 6
Ti       11.48161478405255   -0.02303962500737    8.53117040448559
N        13.04948997239587   -0.72023364168668    8.67907683193229
N        12.15867546696590    1.85348255482427    9.52445828327384
N        11.12185630166147   -0.47341176097579   10.68858060589743
N         9.49746291718136    1.09589181854712    8.98688444994794
C         9.75236968213627    2.46090162845738    9.46366439291932
C        11.19004321488607    2.88560762139468    9.14062553977770
C        12.25676301286278    1.70543848929644   10.98443622734048
C        12.21095765826380    0.22712550970315   11.37776036140764
C         9.80071314839194   -0.04384966094532   11.17180749765224
C         8.85678053213011    0.25746275861404   10.00222485849674
C        14.03667864213047   -1.41353210535502    8.18908548921924
C        13.94554696369025   -2.01348806632866    6.89852656650882
C        14.95575762186255   -2.76501190156078    6.34790109476949
C        16.13946671876910   -2.96172973637467    7.06602990443534
C        16.28394038752665   -2.39243198713132    8.32936478537325
C        15.26227259667636   -1.64204395000654    8.87007436936098
C        13.47538267536206    2.19777775201490    8.97550640026347
C        11.28297304025405   -1.91713050406931   10.89138777984251
C         8.65963191131055    1.12870171261267    7.78593719920738
F        12.77773977533997   -1.78779896881867    6.25030012591828
F        14.82662570130529   -3.31538495614596    5.13083281161824
F        17.13573642719687   -3.69811078861898    6.53891379619211
F        17.42390090484067   -2.58129320216711    9.01639595568370
F        15.39282909395237   -1.08018417938852   10.10405868027472
Cl       10.23238756255622   -1.75690819490829    7.92447647618511
Cl       11.59816771783876    1.02004718783849    6.57445141742826
H         9.56720095667928    2.52428862125814   10.54023792344588
H         9.06734579363453    3.17448041284874    8.98828959482967
H        11.41495857108377    3.84326263831183    9.63851231079081
H        11.27890124965502    3.02073340133462    8.05802500591370
H        13.19527322616421    2.13532428005573   11.35476944197107
H        11.44649916527522    2.25537893266866   11.47074642841292
H        12.11397360042037    0.13335047749644   12.47166139916408
H        13.14741163778949   -0.24413613722458   11.06592395080730
H         9.90676810004428    0.83718300261139   11.81100991834014
H         9.34411831083944   -0.82620062510030   11.79045578098501
H         7.93508419834486    0.72627069100098   10.38821746151701
H         8.59126940833553   -0.68720821422236    9.51733787486214
H        14.19946921115431    1.43999557832155    9.27491295082506
H        13.80257175051676    3.18194963515652    9.33890360114862
H        13.42568706594016    2.21299407894201    7.88551998728425
H        10.47134641384893   -2.44901260498643   10.39481458232440
H        11.28605812487775   -2.16191940997648   11.96266109524945
H        12.22357081581931   -2.24226070880701   10.44297651611375
H         8.56230502970592    0.12124087270704    7.37911320162571
H         7.65808273108560    1.52133978939706    8.01376619479346
H         9.13004020721917    1.75629148438998    7.02941247416844

