42
CSD_code = WENJAC | q = 1 | S = 0 | Stoichiometry = C16H16ClN8Ru(1+) | MND = 6
Ru        0.32441173225633    5.12815873800272    3.15992512616993
Cl       -0.11639625699214    3.26134494115512    4.42236599100517
N        -1.41202440769835    5.89240733223357    3.63164549956413
H        -2.31339576554519    5.80428545987066    3.15736889135406
N         0.82018626483014    6.12939512327274    4.76426376257274
H         1.73372851899338    6.23286485213924    5.21133737210328
N         2.17099209246976    4.31583873341095    2.77354229505776
N         2.58974057101222    4.22969385031601    1.49751234010199
N         0.86609184840271    6.52685675818718    1.79646466574848
N         1.48145726670833    6.13630956571694    0.66414630116312
N        -0.29543829123704    4.05303003016693    1.52320776210767
N         0.49776232575251    4.00605476036013    0.43710632856669
C        -1.47577742539905    6.45610520747047    4.81850879252050
C        -2.63655648621325    6.95102894575816    5.46830499571589
H        -3.59505835002144    6.84742589511269    4.98144233831310
C        -2.52351756399442    7.52822803191906    6.69698033980361
H        -3.40214416924840    7.89410713194019    7.20484089866923
C        -1.26479205800647    7.66054639621860    7.33638586281006
H        -1.22594733630518    8.12281363895121    8.31032985896692
C        -0.12041817984648    7.21606388014154    6.74614034001667
H         0.83864368756478    7.31439077269594    7.23301733557280
C        -0.18675073812281    6.59241839617156    5.47283799399255
C         3.08887809914710    3.73403428152040    3.51752644416401
H         2.96920644344088    3.65765745249626    4.58151127401425
C         4.13400738136594    3.25936571845574    2.71025371413441
H         5.01505976124189    2.74465412950756    3.03106342876562
C         3.78445695734746    3.58929317438597    1.42731363538816
H         4.28423564759069    3.42242709756727    0.49511722644985
C         0.75584935081632    7.84244213920786    1.73510047265112
H         0.29293263787889    8.39347686976034    2.53256392167561
C         1.31098818934262    8.31807672690693    0.53781534629862
H         1.36658318675476    9.33542159917536    0.21220864278082
C         1.76525036972124    7.20817953962144   -0.12383935476498
H         2.25539736696609    7.10218025678654   -1.06944613447987
C        -1.32152032867593    3.26336389624235    1.28201329237009
H        -2.09008779567373    3.11790705818720    2.01711422215425
C        -1.19897201113642    2.68949235893150    0.00727711305239
H        -1.87678892789873    2.00792628824191   -0.46190895310570
C        -0.02734600418866    3.18162048626326   -0.50466558227428
H         0.45779040845129    3.01266855318410   -1.44419771743176
C         1.74460824185349    4.73509659277765    0.44100049766306
H         2.24817374629545    4.60544733956869   -0.52509658140007

