45
CSD_code = WIDVOV | q = 0 | S = 0 | Stoichiometry = C14H21Cl2N3O2RuS2 | MND = 6
Ru        9.24475600741722    0.21846867028776    4.55142232082536
Cl       10.21587383260665   -0.30887272110364    6.61568392955810
Cl        8.43313248347178    0.73558973905124    2.38668783900005
S        11.25561060376057    1.00294735177726    3.82929009958568
S         9.80848348606577   -1.83726622775939    3.64485003948488
O        11.95078956106637    0.02612440837321    2.99967920854364
O         8.72489887016862   -2.79103239446992    3.87434486185824
N         7.41892404533558   -0.46689187243906    5.13788191130757
N         6.40357210951668    1.52670231640650    4.40796111863885
N         8.57452486125191    2.02386403130883    5.18285752999401
C         6.32428299967996    0.18685514526058    4.73230171918390
C         5.07412542172852   -0.43523080679460    4.69771132221006
C         4.95331401966606   -1.72572728526704    5.17390623515255
C         6.06795582834591   -2.33822095439415    5.72878439182370
C         7.28056099886687   -1.67854949886164    5.67757335580609
C         7.36592078482792    2.43714313920843    4.76536204923099
C         7.03978993589895    3.79872078282534    4.73269350686402
C         7.93476683740760    4.72745295511498    5.21992542194930
C         9.12781652764240    4.27332581574959    5.77304696941995
C         9.40339741313042    2.92323737579718    5.72288477952694
C        12.52607164230058    1.53651109547679    5.03410383023367
C        11.20455891397795    2.53221636008179    2.83696573887059
C        10.17381811382780   -2.01133224049044    1.87409184890246
C        11.30585334104829   -2.62886630500474    4.30815221980152
H         4.22241269893105    0.09913566975916    4.30616813871644
H         4.00026685224605   -2.23063038825280    5.14239523572540
H         6.00948918946377   -3.31978160942123    6.16684790993732
H         8.17349065945075   -2.11802370388987    6.10086578753511
H         5.58809176117514    1.91096719881138    3.95279615078895
H         6.08583103639600    4.10417670748314    4.33241438543693
H         7.69976925564066    5.77977922762715    5.19634053078978
H         9.83216221731299    4.95509713177379    6.22044905315284
H        10.30739231043432    2.51297448318887    6.15491856582218
H        12.41368682464617    2.58682718403790    5.27010786132916
H        12.40356212259159    0.92390049727709    5.92281482360389
H        13.48537000364425    1.34160726840737    4.56979119070602
H        10.84098842945618    3.34428406991974    3.45649844325601
H        10.51353165661262    2.34731231612016    2.01981315776894
H        12.20118190216520    2.72681759445446    2.45910366824168
H         9.32123360832334   -1.61476133242721    1.33282598504772
H        10.28700437701591   -3.07139591224025    1.68098689509504
H        11.06985838247643   -1.45046413930682    1.64390813200347
H        12.16386066782908   -2.10438857124938    3.90723060108581
H        11.29140501262339   -3.67253787061820    4.01762131022892
H        11.27041239256619   -2.53036470160398    5.38913992595321

