42
CSD_code = WIHMOR | q = 0 | S = 0 | Stoichiometry = C17H19ClN4Pt | MND = 4
Pt        2.08965509398138    1.99081633298255    6.52574826606169
C         3.91915420971706    1.95410557474583    5.86499597570209
C         4.72011393886119    0.85184274146093    6.14047250019094
C         6.02590861011316    0.82591937993924    5.67932952195118
H         6.69079778062307   -0.00133049121729    5.86546317508563
C         6.50878930837128    1.90987730678510    4.94531743872767
C         5.70656465022380    3.01352123569664    4.66737236132203
H         6.12602866625097    3.82527279342123    4.09649226495011
C         4.40009386906630    3.03209862733796    5.13353961708512
C         3.39448191816664    5.24359196739494    4.34935653228297
C         2.14824517856996    5.75306322229709    4.54322533185694
H         1.72823560098587    6.68108311433755    4.21206141718110
C         2.18469768953819    3.78109969790944    5.56281776409663
C         2.71213509563701    0.18403837811997    7.22523532804385
C         3.25609738695435   -1.81041353403188    8.03525833142263
H         3.10682935317724   -2.73331378047961    8.55801956335154
C         4.35908096580059   -1.34430152622916    7.39002955209025
C         7.92936547155609    1.87412848892186    4.45930744795377
H         8.14903656637809    2.73121595090669    3.82818439889026
H         8.11616075173059    0.96631365335244    3.88738639206537
H         8.61923761403693    1.88371047836030    5.30305721255926
C         0.06606461053985    5.04457540714955    5.68609370315584
H        -0.57325098651106    5.16142938394774    4.80967260038834
H        -0.01840003666085    5.93603399124750    6.30957094131865
H        -0.25929504178013    4.17342285695361    6.25675200452194
C         4.52893946165729    5.85290835349336    3.60827693824445
H         5.38559772963145    6.00319426685188    4.26436782177781
H         4.21975519236682    6.81829321767073    3.21573393218255
H         4.83245727675697    5.22017447468984    2.77487745566018
C         0.95370324483369   -1.00949013046567    8.48361005221425
H         0.37491048858181   -0.11358766808310    8.25382858542968
H         1.01698017963546   -1.13082534313611    9.56602080405614
H         0.45422133693273   -1.88046642638924    8.05650902742677
C         5.67947930498231   -2.00727757366063    7.23424770535928
H         5.91549794556208   -2.15910583078145    6.18161077367955
H         5.65145994263865   -2.97604253780086    7.72651175709102
H         6.46988324484202   -1.41013200896440    7.68763843481347
Cl       -0.09826661086532    2.03760738067205    7.32178442121640
N         3.40676663853906    4.02579936584507    4.98305051487691
N         1.43099706015317    4.85013903670432    5.28155456052098
N         4.01293892416515   -0.11191651324278    6.89384559981880
N         2.26915037425722   -0.86787331471211    7.92327197337313

