56
CSD_code = WIZVIK | q = 0 | S = 0 | Stoichiometry = C24H22CuIN6S2 | MND = 3
I         1.34816119793920    0.76462578371573    3.31592484905999
Cu        2.16597649924405    3.10919812592043    3.61531337412582
S         3.98401321245360    4.13592718462701    2.57460730432082
S         1.24672148339995    4.74923863047951    4.99891230970930
N         4.63849874516296    1.67666934493514    1.95533090602266
N         6.15467148041584    3.25859891265444    1.27033077341045
N         6.43421732664674    0.70673440514881    0.81260327269350
N        -0.86234257863977    3.19860508135297    4.93553451964716
N        -1.19046651627418    5.19299674125183    6.02440021758230
N        -3.04585416726457    3.37868506961928    5.75527469555242
C         5.00419557748404    2.99116371832712    1.89316571754337
C         6.84632337958534    4.43834953794213    1.00610962240257
C         6.54114436942361    5.68743787509821    1.53788728291959
C         7.31519797782954    6.78492525242841    1.20462178626005
C         8.39413961837299    6.66077814729676    0.34785913101152
C         8.70641133050317    5.41698256621525   -0.17800974399355
C         7.94298923728928    4.31544934727226    0.14882821731011
C         5.27569962547805    0.55947935997404    1.45469286374213
C         4.68546053842655   -0.69792079529771    1.63803586806991
C         5.33421791215631   -1.80473787284812    1.13524606712228
C         6.54524978930968   -1.64556570818266    0.46748448137995
C         7.04690339131544   -0.36712479987271    0.33520338557842
C        -0.35560083175523    4.39742106391643    5.35090164611238
C        -1.05698447614131    6.45452748856352    6.59900995859328
C         0.05740583503441    7.28006887482869    6.48476749745550
C         0.06150540805790    8.51970592792865    7.09957575410595
C        -1.02938683024604    8.95553092261705    7.83000960922895
C        -2.14327274200147    8.13846426771217    7.94294118447837
C        -2.15928651800358    6.90130234506672    7.33294562043025
C        -2.12356415814366    2.66593027628849    5.10904938449841
C        -2.39769858396440    1.39062358691804    4.59748442951091
C        -3.66273468315444    0.87331083841242    4.77302968578191
C        -4.62346070157241    1.62361381158454    5.44534003575520
C        -4.25839243284647    2.86822909984234    5.91566588299580
H         5.71022706097412    5.80867388339345    2.20963300173430
H         7.06749895437509    7.74826511059055    1.62458404489252
H         8.98987601401861    7.52385725358912    0.09243826215851
H         9.54824050326748    5.30563795999670   -0.84504701369498
H         8.18627653848119    3.34478439098061   -0.25983307859666
H         3.74489392280255   -0.79114490022348    2.15545276737819
H         4.90225663088519   -2.78582309952335    1.26061514747187
H         7.07771899264746   -2.49087106387750    0.06374091848361
H         7.98163082345919   -0.17116260111683   -0.17301323300649
H         0.91690432933607    6.96554163315569    5.92048293836129
H         0.93266223057669    9.15007252810919    7.00233154477283
H        -1.01500887436291    9.92374281540394    8.30690997498994
H        -3.00253397009984    8.46734476946046    8.50841229141777
H        -3.02809211324150    6.26400264598190    7.41971807017259
H        -1.63329581099775    0.83062302960032    4.08437277713716
H        -3.90207656042167   -0.10707168537791    4.39037994038030
H        -5.62195616595324    1.24818795280102    5.59752163104594
H        -4.95405067434617    3.50281193450393    6.44840776407485
H         3.74314170719984    1.49957207256504    2.41423237965744
H         6.59285184364394    2.39540662387700    0.89416194228032
H        -0.19799321426108    2.59594684674263    4.44645446537569
H        -2.12333088367973    4.75237748726637    6.14186587317336

