65
CSD_code = WIZYUZ | q = 0 | S = 0 | Stoichiometry = C22H38ClNNbPSi | MND = 10
Nb       -0.58411984209943    2.25434689910696    8.18492536249989
Si        2.08532039748950    3.94114688936060    8.71685777470530
P         0.28772679252654    0.33483137743747    6.75058516541810
Cl       -0.90656130007950    0.22348574029721    9.53854590595861
N         0.78175583689186    2.98928980581926    9.38821913437396
C        -2.16289713533080    2.00941975331942    5.90563813321546
H        -2.11610875970089    1.41212849467512    5.00524378070805
C        -1.47087083846583    3.22397765521773    6.12061355424422
H        -0.90463629598971    3.75404748195109    5.36549660319040
C        -1.93959727328174    3.78930068500990    7.34835989201723
H        -1.93592888830338    4.85461098306971    7.56874096108485
C        -2.88312231105060    2.85003950849018    7.89742678411756
H        -3.57198031858371    3.05130821134618    8.70856875262137
C        -3.01241078232292    1.78005334517440    6.98822453035859
H        -3.68487601900454    0.94123052650414    7.10381653804496
C         0.75490948197372    2.89972353767305   10.79947563453148
C         1.56276688815973    1.96379818060851   11.46904896439168
C         1.56564895576132    1.93587049342291   12.85562880887796
H         2.19343629147500    1.22383449195160   13.36968574067435
C         0.78704247221496    2.80487556422809   13.59384198463302
H         0.80312450957042    2.77035153654811   14.67311511712097
C        -0.01585961195689    3.71472487241064   12.93649378096764
H        -0.63351201226704    4.38812182794300   13.51169946410098
C        -0.95234676944716    4.78166155716136   10.87878573608380
H        -0.76384024830182    4.74714117972784    9.79766428086550
C        -0.69536706132502    6.21335619651582   11.35124770240569
H        -1.31289988160687    6.90998724117932   10.78666621612690
H         0.34900865538610    6.48039625318680   11.20718191095099
H        -0.93438305288969    6.32883026383106   12.40544357143511
C        -2.40750545926498    4.37454395370862   11.12992275541864
H        -2.54857574836424    3.32873374967293   10.85529779737865
H        -3.08727053270828    4.99607031862789   10.54868489858737
H        -2.65869458120889    4.48367197638562   12.18270533878624
C         2.43194706648196    0.99227254882473   10.70611074123799
H         2.17839174239483    1.09149694583276    9.64479444368379
C         3.91434482527158    1.32655832870164   10.89210878805430
H         4.19081648515040    1.26019837866149   11.94196384196301
H         4.12842056796482    2.33279739772206   10.54154326945005
H         4.52955460285809    0.62584540530573   10.33097494596961
C         2.15719081923993   -0.45237529540247   11.13101043169792
H         1.10306708048792   -0.68309006326710   10.99997192963730
H         2.41956844829990   -0.61195007761717   12.17345145995629
H         2.74898623097371   -1.13831840443995   10.52706874995737
C         2.96853829443002    4.97769898959187   10.05131563585250
H         4.00136637548041    5.16177996610503    9.77393865119788
H         2.96253535355810    4.47739270226460   11.01462889825897
H         2.49268200152428    5.94530420329599   10.18160909914854
C         1.45494547998702    5.13240104204539    7.36901587091404
H         1.04170561298335    4.59129973075743    6.52293241279959
H         2.27657279906518    5.73836400440999    7.00239489340375
H         0.69155867790753    5.80968461147085    7.74307998109618
C        -0.03844681311431    3.78293229224005   11.55107467665731
C        -0.76283111946875   -1.13743735263802    6.42916855287581
H        -1.08984044345352   -1.52024742035228    7.39546467490144
H        -0.18751098052254   -1.89604695718803    5.89833583395135
H        -1.63655737465977   -0.85944163679621    5.84352674264636
C         1.75681477184851   -0.49873161098206    7.45222699920153
H         2.08023167861262   -1.29974260835588    6.78590085639100
H         1.48347259008951   -0.90930018364958    8.42262852601928
H         2.56177918831616    0.22554017051175    7.57371934339717
C         0.94649319124700    0.73059549761268    5.07746616159968
H         0.16483695452027    1.13632075067746    4.44092399713642
H         1.36147339069703   -0.16407299168573    4.61408342716874
H         1.72948650517072    1.47996186754688    5.18993112360875
H         3.06433043878358    3.01809921723506    8.07668246425871

