53
CSD_code = WUNSED | q = 0 | S = 0 | Stoichiometry = C16H28Cl4N4Zr | MND = 6
Zr        3.76393470891781    2.41844040043798   -0.00016865610753
Cl        4.68331732941419    3.30535362949059    2.01870940896334
Cl        2.21043663109973    4.23283709258701    0.07382215769340
N         2.40738643541937    0.66776862677472    2.48259475242064
C         2.19870857162658    1.23110253637007    1.27059863054973
N         0.85410380231343    1.32337300876790    1.15240262827670
C         0.23897470726774    0.83212916217068    2.26841390778135
H        -0.82602919782076    0.81591671573618    2.37941598666501
C         1.21855577916553    0.41431296704085    3.10606597411935
H         1.14914109387710   -0.03557970463681    4.07420887607534
C         3.69535516410204    0.24418168644159    3.01010023995538
H         4.46614039920147    0.59208411484100    2.30813265707994
C         3.94870275595204    0.88319056181165    4.37311544481454
H         3.20816943365019    0.57035604585865    5.10599773818793
H         3.92776690673791    1.96634123362927    4.28043449082135
H         4.93218703065148    0.59289420971559    4.73040541936414
C         3.74064896219201   -1.28933237459560    3.06937850282952
H         3.00969767989459   -1.65482305873601    3.79557316216369
H         4.73212793815629   -1.57975527495486    3.41763851416727
C         3.48054958100561   -1.91948946744283    1.70558687901334
H         2.46825687948840   -1.71189409516062    1.36113384621359
H         3.60454489022560   -2.99802038108770    1.75880492827167
H         4.18023777647644   -1.52620578579557    0.97164070240882
C         0.12606317781699    1.84347475284968    0.02119392783602
H        -0.09451825183276    2.90441982471901    0.16407810688498
H        -0.80800318616133    1.29212355382392   -0.08879281892593
H         0.72278919770157    1.73582275004484   -0.88876514913487
Cl        2.84435523798444    1.53119838723691   -2.01944613882922
Cl        5.31808654239512    0.60339599357857   -0.07337600698777
C         5.32922995431751    3.60589802131386   -1.27069133615478
N         5.12061426133656    4.17063978480540   -2.48203578751151
C         6.30949565755158    4.42578723208283   -3.10471982867235
C         7.28906137336258    4.00763395119627   -2.26722654294722
N         6.67386346248167    3.51445812443385   -1.15210051448931
C         7.40189748498948    2.99309952804498   -0.02145974682549
H         7.62262498804982    1.93234780550949   -0.16560968434088
H         8.33589562770361    3.54442622436435    0.08922144228343
H         6.80514042108098    3.09960390752304    0.88861755832059
H         8.35409673617712    4.02483268584797   -2.37777939654435
H         6.37894350432106    4.87699791019346   -4.07224723484852
C         3.83248578152660    4.59302687209748   -3.01011692051399
H         3.06173019018396    4.24471192514492   -2.30833370605895
C         3.58028121443574    3.95321055390991   -4.37297707197642
H         4.32104151759286    4.26619878062180   -5.10556579800112
H         3.60188264919460    2.87011047993812   -4.27979681643765
H         2.59680211219435    4.24269163292149   -4.73094268553025
C         3.78581214779615    6.12646021548009   -3.07002404700785
H         4.51689044059677    6.49237185995968   -3.79587227058172
H         2.79429970200944    6.41580570380888   -3.41908483997065
C         4.04436973120488    6.75741829899680   -1.70631650989603
H         5.05653724423750    6.55068653819239   -1.36097980156963
H         3.91961607012249    7.83583582219244   -1.76009215604067
H         3.34439975061375    6.36392902990419   -0.97276441725718

