31
CSD_code = XANHOL | q = 0 | S = 0 | Stoichiometry = C13H12BrN3PdS | MND = 4
Pd        5.79545423956971    1.29071286204559    1.37976952052305
Br        6.36385153568741    3.21543985571517    2.65158765808276
S         6.53785310748055    2.42323273284449   -0.43357764890067
N         5.26062380670126   -0.35262010850891    0.37131129148631
N         4.73149391368866   -1.29044926726547    1.13706024129419
N         5.06605078260324    0.19235909169512    2.91270339324537
C         6.39723593769160    1.45116119256001   -1.92402202100551
C         6.88468925072945    2.08102253500139   -3.05972936607969
C         6.83324250038688    1.46343558003798   -4.29369582203579
C         6.29470028630930    0.18631678338851   -4.38424142682068
C         5.82342726945131   -0.44722835035922   -3.25842788643068
C         5.85711836584372    0.15547030591585   -1.98425517572686
C         5.33404820225415   -0.62623748379224   -0.90343967899290
C         4.64560110233516   -1.01632093128759    2.43803703941028
C         4.11227663542296   -1.97834888223938    3.32255302279104
C         4.02768795681899   -1.69207993360899    4.65887107555051
C         4.46824409030376   -0.44929271336771    5.12237655276178
C         4.97594784370758    0.45527122201036    4.21699848262871
C         4.99147440616541    3.39137773199450   -0.60839293053216
H         7.30818268740075    3.07006561193295   -2.96115175473343
H         7.21107085160100    1.96657020597392   -5.16961710961392
H         6.24950561655892   -0.31468743966962   -5.33928478589818
H         5.41379127363215   -1.44313876456543   -3.33975526247899
H         4.95044647319094   -1.60625452204871   -1.18243668946151
H         3.78972621109333   -2.91867318790515    2.90809435749444
H         3.62535246337198   -2.41800936638268    5.34935772749099
H         4.41687177632402   -0.19261217447948    6.16706922684574
H         5.32330870646648    1.42879825283825    4.54074821970271
H         4.99876905479970    3.87572999683410   -1.58119229250509
H         4.12267374983748    2.73290847256918   -0.51613146908694
H         4.99367990259042    4.13948069209176    0.18361351095311

