41
CSD_code = XAWCIJ | q = 0 | S = 0 | Stoichiometry = C20H14BrNO3PRe | MND = 6
Re        1.56564089486464   11.36350768747288    6.26561268877452
Br        3.74868683927118   11.14201899700080    4.98329441600438
C         1.01316614941388    9.56304231986904    5.74897167981557
O         0.71753357760248    8.52672789427578    5.36255479033265
C         2.42833072491158   10.74161076283512    7.90001564658926
O         3.00089463347163   10.43247442190053    8.83996748374822
C        -0.07078844505402   11.77652135197192    7.22033913655105
O        -1.01385071220825   12.04578097838817    7.81689823217778
P         1.02616095071285   12.72050366984888    4.28138028534166
N         2.20400878543149   13.52667346133356    6.40509380010038
C         2.87949898485799   14.25758891662511    7.27719816257156
H         3.04231940499350   13.82207760328608    8.25457791685239
C         3.37207021496930   15.51283712376608    6.95310880679172
H         3.92906299435803   16.07603089463100    7.68442460469729
C         3.15450608836028   16.01260739167240    5.67925972024551
H         3.54229214933262   16.97921055081035    5.39453922799516
C         2.43880048093178   15.24977886908210    4.76754612041815
H         2.26619109049948   15.59719722560263    3.76027253063404
C         1.97466812533457   14.01080665045977    5.17258904591003
C         1.62130840615777   12.75965108075439    2.57139046747546
C         2.92964454753619   13.10401714081968    2.24756349515453
H         3.63414775389421   13.37772216376012    3.01938402554248
C         3.33761302689721   13.06773211645796    0.92637221373227
H         4.35345258788378   13.33468520497971    0.67681388885939
C         2.45507708184325   12.68000745400899   -0.06773341000995
H         2.78093804128271   12.65002729230706   -1.09671998076986
C         1.15664164916925   12.31890031882799    0.25677990337735
H         0.47098495323292   12.00477995797184   -0.51619683876870
C         0.73859170870423   12.35233077224906    1.57280575310323
H        -0.27156084735939   12.06405995774186    1.83440855018205
C        -0.61855619739528   13.49263648873705    4.10918584335974
C        -0.79666102937106   14.73432722363418    3.50836108452888
H         0.05444621986746   15.27780145007388    3.12252688089002
C        -2.06739702548379   15.26535914014454    3.39650762522636
H        -2.20604898613974   16.23209662588269    2.93499190193302
C        -3.16262426624818   14.55948671540526    3.87126669666002
H        -4.15273677906837   14.98062376312238    3.78115291587261
C        -2.98974591563099   13.31533604029400    4.45365608402653
H        -3.84208720141173   12.76048521292283    4.81555411479273
C        -1.71890038974783   12.78146668743344    4.57346606056926
H        -1.56992027065723   11.80687042163290    5.02331842871024

