56
CSD_code = XEFWUB | q = 0 | S = 0 | Stoichiometry = C25H25Cl2FeN3 | MND = 5
Fe        7.79289934089451    3.54682448341336   11.37873654316575
Cl        7.57362525482067    2.97161049142278   13.33055980035320
Cl        9.35876193229194    4.80356745639127   10.80997222633975
N         7.15580024243384    3.24378191725695    9.75320625454876
N         8.96772740365587    1.89649890992419   10.92492463893763
N         6.31217462691007    4.83429231329121   11.35870196895993
C         6.15845394520904    4.01016156127626    9.22276435411946
C         5.72544165418791    3.79667215565311    7.90063695694446
H         4.93720518747158    4.42158115431595    7.50966714470988
C         6.29838565211734    2.81960085609671    7.12659484900935
H         5.97552877293893    2.65961680086960    6.10972595398537
C         7.33191298650510    2.01394512520495    7.66648370705838
C         8.02898973452458    0.97574637204737    6.99292569943768
H         7.75569544987512    0.75652092752832    5.97106587810677
C         9.02184457620814    0.26667403308618    7.60241710813574
H         9.53727524525684   -0.51684686086142    7.06651054259401
C         9.40829668467979    0.52163079017392    8.94745865412483
C        10.40877383351723   -0.15423801446444    9.66132669095732
H        10.97223342883867   -0.94562436987045    9.18946813268831
C        10.65761815971989    0.21613294063117   10.96640360628369
H        11.42092819588332   -0.28157757441744   11.54336507007096
C         9.92303109412063    1.24530957430266   11.55990004418214
H        10.10718736540387    1.54356355171274   12.58205713636635
C         8.72333487315929    1.54372287149555    9.63793407519658
C         7.70943717814269    2.27488620906902    8.99017444195767
C         5.70382397165907    4.92041199879876   10.19808254073867
H         4.89191437218278    5.61958405895943   10.03208617728086
C         5.80525936685613    5.57325105987625   12.44893380095299
C         4.76583515628329    5.00977467283574   13.20464914143759
C         4.27449471172065    5.72433749051547   14.28653505644305
H         3.46815457415910    5.31304237924609   14.87369459181800
C         4.79983007716090    6.95652419543941   14.62621662610829
H         4.40809957346291    7.49514973359147   15.47656697349345
C         5.82341952725942    7.49801365335845   13.87454027948939
H         6.22752169804864    8.46216790782481   14.14224854937542
C         6.33737310382406    6.82416610441213   12.77535641478156
C         4.16394732484036    3.67165115901576   12.83903874959056
H         4.80924183859771    3.18747162905494   12.09541293867018
C         4.08371567328557    2.73632814517887   14.04571709286760
H         5.06668669360321    2.63236147617592   14.49701835721219
H         3.74330772657061    1.75320134045906   13.72699701920827
H         3.38965552473571    3.10905546918830   14.79422262745476
C         2.77907198161658    3.87697719841496   12.21805185866674
H         2.84376915434929    4.50007352098916   11.32816084158261
H         2.11227250790337    4.36266154098513   12.92697229906769
H         2.34641281527614    2.91910377215302   11.93707974088821
C         7.44870352115950    7.43695926082163   11.95914872726211
H         7.68915151315726    6.76638965127123   11.13012378956592
C         7.02186919385437    8.78377052339972   11.37182025781856
H         6.11794691131216    8.67162491483774   10.77576288163307
H         7.81029902098966    9.17381018814286   10.73244709037791
H         6.82597209378299    9.51088418697737   12.15631550727536
C         8.70899833092471    7.58345331369293   12.81301985654905
H         8.98605504826502    6.61815955827229   13.23053562566132
H         8.55283116693918    8.28534987057421   13.62908520564291
H         9.53310300746188    7.93613634999031   12.19827790285890

