26
CSD_code = XEJPAD | q = 0 | S = 0 | Stoichiometry = C9H10BrO3ReS2 | MND = 6
Re        9.53498673420917    2.74468065907353    3.60531760640833
Br        7.49101467661863    2.13160851869831    2.29954446070654
C         9.54539647604331    1.08048952885572    4.61749606518980
O         9.50752014376287    0.10079525839306    5.20700342199490
C        10.67736658055163    1.98569339337946    2.22315138697075
O        11.31468595606700    1.56233757253013    1.37310230324768
C        11.02812052748222    3.49071665182406    4.58108142757871
O        11.89976449616602    3.97650861792716    5.14472724524459
C        10.34827704404584    6.20411354377161    2.73465645247937
H        11.28533020611428    5.92119397799240    2.26424187426123
H        10.49332025880432    6.28868297896036    3.80730975259952
H         9.99145275562402    7.14108053884823    2.31533112825333
S         9.16073056164553    4.89422855643914    2.32446052204500
C         7.64736628188421    5.55298449017007    3.10950776214079
H         7.50538328215299    6.56108005915869    2.71657605106227
H         6.84360449490891    4.91340620413955    2.73838011253471
C         7.68614182855345    5.57371066086311    4.62409529787114
H         6.73791265327855    5.93510067208590    5.02429641090433
H         8.48803400354518    6.21633873170948    4.99256220912633
S         8.00505564049202    3.94140349235029    5.39439917272422
C         6.31970958697697    3.19724776178659    5.33509261529206
H         5.68692916709289    3.80841178741125    5.98145956461836
H         5.96150668211376    3.20469144542706    4.30311117275397
C         6.40799277361017    1.84177883195269    5.81023572606392
C         6.54671357340279    0.71292386405995    6.18274168862098
H         6.63558361485239   -0.28210779780811    6.50121856930753

