39
CSD_code = XEKCIC | q = 0 | S = 0 | Stoichiometry = C14H18Br2N2O2Zn | MND = 4
C        -0.69742140910989    2.92024111231684    3.53430075837464
C         0.00758050980708    1.97745392811144    2.81095238491743
H        -0.34114894936024    0.95444133503853    2.78812785500979
C         1.14513907988006    2.34545132832580    2.11021842263954
H         1.68824456760570    1.60502234161674    1.54443495422185
C         1.57470743090054    3.65728783996508    2.13877790813112
H         2.45872886791142    3.94998043005099    1.59432397256101
C         0.87128211596116    4.61671054015144    2.85106207560354
H         1.20810290801550    5.64021384246823    2.83974932777036
C        -0.27025945186906    4.25585226920425    3.54586160702997
C        -0.72497484249509    6.46900395402371    4.32136267883587
H        -0.74024397278561    6.93061022653631    3.32948704399022
H         0.26155544300615    6.59299623907863    4.77610701410733
H        -1.47617838712386    6.93688562203499    4.95652104168409
N        -1.90359754618208    2.61068342667599    4.22688312859485
H        -1.83280826635491    2.89486476726751    5.20329795623556
H        -2.08637736652123    1.61173813255294    4.19382180376680
O        -1.07938222347744    5.10359240212567    4.25345559430548
Zn       -3.45067985930995    4.25381004693411    3.64677211252205
Br       -4.03993909332514    4.85568575994557    5.86621283184890
C        -6.20387079526070    2.92021781957017    3.75909209095766
C        -6.90883932355729    1.97744807809534    4.48249470151159
H        -6.56017332866155    0.95439612921864    4.50523196622765
C        -8.04642764719439    2.34544560068260    5.18320307288532
H        -8.58959028407176    1.60500367626499    5.74891356560181
C        -8.47602586458094    3.65727171554063    5.15461163400243
H        -9.36011900885961    3.94994469262964    5.69898353279789
C        -7.77264756524937    4.61667373066974    4.44226308027936
H        -8.10947235085284    5.64018033445121    4.45357681510654
C        -6.63110662434646    4.25580553769533    3.74745326231916
C        -6.17635139115099    6.46897072940617    2.97196025639635
H        -6.16111048837250    6.93055367501197    3.96385711678968
H        -7.16287652700476    6.59298992654686    2.51722225969091
H        -5.42515028849088    6.93687231468009    2.33679306441216
N        -4.99773806659821    2.61064661710234    3.06642345988503
H        -5.06858150901652    2.89485651256954    2.09003579015662
H        -4.81495251027162    1.61170540925335    3.09944423190101
O        -5.82196640521078    5.10353628137936    3.03986115665574
Br       -2.86152957647321    4.85545567477292    1.42734847027891

