20
CSD_code = XIQJUE | q = 0 | S = 0 | Stoichiometry = C6H6BrFeNO3S2 | MND = 6
Fe       -0.14916657247385    0.21212397044317   10.33019977926396
Br       -1.18098914246645    1.75244489249839   11.72432772660608
S        -0.75079056532499    1.46257561349265    8.36931484419492
S         1.67609507149406    1.71372687407599    9.89599356398982
O         1.14615648598949   -1.68598933319036    8.57755768313932
O        -2.60685308947775   -1.34233092516915   10.43060462397292
O         1.03007559832689   -0.97376183091705   12.71126449770017
N         0.93837280301278    3.50875331756902    8.06245111245786
C         0.63799243962571   -0.93381551936469    9.26305741227446
C        -1.64792674758319   -0.73634362560086   10.38474066803932
C         0.57583104687948   -0.51049407496497   11.77965899625056
C         0.65640664825793    2.37905942681708    8.69441221598970
C         2.12594801610154    4.27442559823874    8.35156834145584
H         1.86522445113342    5.17737611035000    8.90837885120402
H         2.60728003205455    4.55984314390302    7.41549913343732
H         2.81710638317247    3.68110374344095    8.94619289072860
C         0.04439248134083    4.09569799354387    7.09518903485995
H         0.50522578158739    4.08548930228974    6.10511522094748
H        -0.16878545032064    5.12781468424115    7.37748314715890
H        -0.88719567132967    3.53520063830352    7.06019025632902

