57
CSD_code = XIYFOC | q = 0 | S = 0 | Stoichiometry = C23H30ClN2Rh | MND = 8
C         3.23340462649083   22.67619641226071    0.33146857297096
C         3.80601281872065   22.76485303894507   -0.93256339037159
H         4.24585112509984   21.89383200105773   -1.39741205727414
C         3.84710825767157   23.97421536210904   -1.60605109916719
H         4.28912558787341   24.02055766888198   -2.59159132961103
C         3.33965608447205   25.13108831501879   -1.02929660657400
H         3.38158096180591   26.06691065485538   -1.56706299588745
C         2.80842045226574   25.08451911627823    0.24198695504678
H         2.44410199269005   25.98554698793737    0.71604803151525
C         2.76022250804308   23.86603309674718    0.91730391192406
C         2.32868421929526   23.67681208633338    2.27585893709185
C         1.47804209897419   23.93038839073852    4.34317634160582
H         0.38934953295391   23.82426573667935    4.17735460455774
C         1.69485463759642   24.43575024360252    5.75504139904787
H         1.25049913288019   25.42262571510000    5.89861465530419
H         2.76218138367273   24.50326959225584    5.96818085566258
C         1.02049994397439   23.41517889985051    6.68180893207691
H        -0.05776570785842   23.44165243414228    6.50452153579078
H         1.19084484845069   23.69828499067893    7.72174605390597
C         1.52975570755130   21.98580077440514    6.46268327661009
H         2.57688866249216   21.93211945851164    6.76749730154059
H         0.96243731291351   21.30602033240678    7.10122203251765
C         1.42615658618158   21.52874480743129    5.00199730328702
H         1.89296253837362   20.55232534359989    4.88559508974552
H         0.38083737513414   21.46251397588863    4.69154861492784
C         2.15944535870134   22.56711912184993    4.18019781046618
H         3.18973788275090   22.63351960623165    4.56649383658348
C         3.54208576895829   19.28954028127988    0.27270056152513
C         2.24537500040609   19.73297306778485   -0.13567546981076
C         1.39237159419040   19.65210171105360    1.00555992599413
C         2.11063098920235   18.96694953676089    2.06410015301337
C         3.42015882803541   18.75276387444917    1.61908660125794
C         4.72664300789292   19.01207017204875   -0.60446311567273
H         5.64597823454710   19.33488602459282   -0.11930453331442
H         4.64303849176086   19.52238587912636   -1.56082353165682
H         4.79915416014060   17.93913296801411   -0.79457956754326
C         1.79094971505104   20.07792036730202   -1.52136232204790
H         1.16512956937551   19.26796778714397   -1.90146955665910
H         2.63365240712362   20.20081875721549   -2.19538889958454
H         1.20580792122146   20.99566206513473   -1.53643154477257
C        -0.08685064823878   19.88707928193925    0.99211147039224
H        -0.35121879206168   20.65184520694301    0.26534561606106
H        -0.44524766837194   20.20178318595104    1.97010183246489
H        -0.60366002066484   18.96339859810942    0.72186667767424
C         1.47152537760560   18.36554753117800    3.27859941060498
H         1.12881779930840   17.35616987980045    3.03747859078399
H         0.60836282129014   18.94257058640533    3.60050306507326
H         2.17357384444379   18.29182252771590    4.10650315355154
C         4.51756414795338   18.01337252702136    2.31455468314358
H         4.21893632230202   17.71651843425333    3.31658681623577
H         5.40782209937476   18.63699226187564    2.38958382303113
H         4.77587131305351   17.11855222191159    1.74589792423261
N         2.28840218264719   22.45424627658785    2.73291023640710
N         2.06600801290841   24.63358561126195    3.21488186630287
H         1.73412889078442   25.54414438263531    2.94196294441836
Cl        5.10696520571562   21.59701958816257    2.32009301119168
Rh        3.05662749486970   21.02653524258541    1.46000160441978

