33
CSD_code = XUVGEA | q = 1 | S = 0 | Stoichiometry = C8H19BrN3OZn(1+) | MND = 5
Zn        1.99647220747934    5.12395216901015   -1.35821073575307
Br        2.46702171769764    6.77391826239826    0.14588186623414
O         1.40634273715169    3.66339714947115    0.20115713480307
H         1.20611171221043    3.79751382320516    1.13659078665423
N         1.50160111207218    3.30585964228614   -2.50568695799697
N         3.45569618945030    5.29271747310725   -2.93855972587538
H         4.31220340210509    5.71980152893916   -2.59347146066002
N         0.71378851351973    5.99690198018645   -2.83564071424978
H         0.00480336770183    6.59242886256234   -2.41342330450310
C         2.46519307483217    3.13264395967511   -3.60272001613618
H         2.01210941756702    3.47450832434088   -4.53181348739130
H         2.71493465774708    2.07717287718257   -3.74202450391274
C         3.75751575622801    3.91684275744163   -3.34714803183546
H         4.31680346944441    3.44823052387480   -2.53378749642441
H         4.37563014122286    3.88514360386222   -4.25180921440702
C         2.90712963949227    6.13746160671192   -4.01439942004139
H         2.68436292258447    5.51303691535192   -4.88061724068416
H         3.63469483001730    6.88637558696770   -4.33486948008917
C         1.64035965077991    6.87961165910141   -3.56079498909079
H         1.92478306016823    7.68166471767491   -2.87525900824682
H         1.16314987149603    7.32966810813047   -4.43814087539956
C         0.05946872400329    4.97509851504970   -3.66567790489318
H         0.52900507637885    4.95974000583180   -4.64996003252852
H        -0.99804989667331    5.20475866392658   -3.81928738173850
C         0.15173676090902    3.59136349797859   -3.00507608604118
H        -0.52894319177559    3.57571716428766   -2.15316346287144
H        -0.17542262949878    2.82689364726781   -3.72022252608858
C         1.52013931023123    2.13782747649483   -1.61742815690731
H         2.56707588563133    1.88077001188160   -1.44521234692359
H         1.01459991721600    1.28066842337109   -2.07791380185863
C         0.88614895938418    2.42576417519024   -0.25636318474867
H        -0.20744768789279    2.47777197498216   -0.32248215436388
H         1.15378132111856    1.61717491225613    0.43063391396938

