31
CSD_code = YAFLUO | q = 0 | S = 0 | Stoichiometry = C14H10I2N4Pd | MND = 4
Pd        2.11996928271848    0.93753196522457    8.60712189523887
I         3.43580922045174   -1.18191956137913    9.18776318644507
I         3.63457062278254    2.53170038415371    9.91627519597703
N        -0.04213752640728    0.04170498527198   10.92141165897363
N        -0.52302673474177    2.73620070065915   10.97357868636414
N         0.68260895506408   -0.18157124063560    7.71112075946450
N         1.02130975446008    2.61367547207569    7.87303055708759
C        -0.13020542766353    0.72072852468996    9.78169147839992
C        -0.24801318818445    2.14123617360766    9.82687476508968
C        -0.50822529880089    2.02766173068829   12.08979188282648
H        -0.76858094287386    2.55317934305365   12.99530726873252
C        -0.12587127136822    0.68980943954629   12.06932384981878
H         0.07522119954451    0.11592609250750   12.96105424698933
C        -0.34969281141839   -0.10174684336043    8.55264844013435
C        -1.53012106284663   -0.79308263571574    8.32952267198723
H        -2.33882687393748   -0.72353212773677    9.03966851409139
C        -1.62709475389602   -1.58022798360313    7.19104308440579
H        -2.53009102478284   -2.13560356387466    6.98951907255678
C        -0.54275791661763   -1.66025304155281    6.33078604237655
H        -0.57640820686171   -2.27650848581766    5.44705336891006
C         0.60609691761382   -0.94751148743188    6.63221255510617
H         1.49209761787423   -1.00095240102133    6.00963112150525
C         0.00843472306649    2.99603140977055    8.65965678153389
C        -0.69298234567735    4.17453654213894    8.42965178300041
H        -1.48554627278838    4.45447011707387    9.10386620244326
C        -0.32860457146309    4.96230773358070    7.35208414666842
H        -0.84539780441113    5.88858579085259    7.15341530157398
C         0.72264152333734    4.55422626128572    6.54243745045435
H         1.04592778196830    5.14927782433800    5.70386557122716
C         1.37679079864906    3.37192684050005    6.84428906510445
H         2.22570563720700    3.02759204110630    6.26010339551250

