66
CSD_code = YAHNIH | q = 0 | S = 0 | Stoichiometry = C31H26Cl2N4P2Pd | MND = 4
Pd        2.99304330636730    8.31834231915417   11.36084279870527
Cl        4.39686586297882    6.50989079003795   11.14137098960554
Cl        2.51020782252840    7.86798326519909   13.53202595811930
P         2.15371925865261   10.36488498893990   11.60923634800195
P         3.69808491771329    8.54437948927334    9.23903340553239
N         4.84467323561058   11.24321756972274   11.22765272346797
N         3.27355309137303   12.76809783987281   10.91601255561112
N         6.12577699125080    9.46674742812123   10.28663847122400
N         6.28908248974909    8.54948367246518    8.27918388373935
C         0.81935152627090   10.70116548752448   10.43672386706483
C         0.49126777421698   11.95802136096166    9.94468314880430
H         1.08857655135770   12.80948289282239   10.23320507044875
C        -0.58331173170725   12.08446097070268    9.08232609652246
H        -0.84171817329556   13.05652442213502    8.68920199166236
C        -1.33429809449999   10.97455099109002    8.72778384495286
H        -2.17739002294014   11.08613198078873    8.06188424385478
C        -1.00958117722749    9.72129631891092    9.22305983140838
H        -1.59640234285272    8.85870473848555    8.94364500143073
C         0.07202420782464    9.58220347541143   10.07233137913770
H         0.35362377334822    8.60309052793615   10.47349557597599
C         1.58706867573113   11.04752973308157   13.18866791627013
C         0.25427073833943   11.36248282399396   13.42134140135069
H        -0.47602993712410   11.24018224823533   12.63358605718019
C        -0.12928427926321   11.82787689232335   14.66691172263849
H        -1.16512626590969   12.07362665582752   14.85075888863363
C         0.80686860279388   11.97032665390952   15.67711738186378
H         0.50069957863014   12.32881085384839   16.64867584741179
C         2.13492917422691   11.64272820831896   15.44857093494700
H         2.86112027300853   11.74210425783527   16.24163080546193
C         2.52597400676696   11.17765713497130   14.20899646556483
H         3.55632706802592   10.89497200124123   14.02752200046548
C         3.49813307571823   11.51149296342844   11.21420338646082
C         5.46617864884455   12.41654078445216   10.89629542366544
H         6.53259414582931   12.49137245365985   10.82892504373370
C         4.48091614869227   13.34055590874650   10.70794018820523
H         4.56500190872793   14.37480690788104   10.44175723060598
C         3.10925983826296    9.86803820844300    8.12678850690911
C         3.77562464654573   11.08108071411860    7.99706226440898
H         4.73228848029214   11.23144895945607    8.47764566808495
C         3.23240223709140   12.09464980363771    7.22940119489118
H         3.75604865713816   13.03460163587963    7.13754201878262
C         2.02428791911481   11.90472585030740    6.58125398104922
H         1.60142584574562   12.69852911176022    5.98410185724930
C         1.36344959691411   10.69187626011789    6.69131207861816
H         0.42801914950766   10.53582624026031    6.17493137078097
C         1.89836977762346    9.68100815015902    7.46509484563544
H         1.38499969672481    8.73302365283388    7.55653207871868
C         3.36369875407347    7.06350228405620    8.26276449254238
C         2.30962241616817    6.26368298867252    8.69990117746654
H         1.79086746576939    6.51728627641924    9.63109639666856
C         1.95967107818672    5.13771687211552    7.97977256021734
H         1.15089424876778    4.50693269103292    8.31829486219368
C         2.66075459580912    4.81274424300169    6.82818890060299
H         2.39454473196502    3.92631723788338    6.27125685034459
C         3.70729594843353    5.61145784980829    6.39590578101396
H         4.25371567357968    5.34620972297175    5.50281491141957
C         4.06098101311867    6.74680692932159    7.10438835865369
H         4.88376726428924    7.37306885653817    6.79403979493181
C         5.46813255976536    8.85021344381124    9.25413671617836
C         7.43848022186984    9.53333040095189    9.91132627574942
H         8.18944290614916    9.96141712110830   10.54367393717742
C         7.51672374559086    8.95728069090342    8.67694555981197
H         8.37497328730954    8.81169805880071    8.05248713677056
C         5.56904072929325   10.01767449539769   11.49599312701420
H         4.89246496148383    9.27373184079599   11.98811757702405
H         6.40086172375789   10.24279239806098   12.17529183950524

