40
CSD_code = YANSEM | q = 0 | S = 0 | Stoichiometry = C17H20Cl2Ti | MND = 12
Ti       -1.30484361607684    4.31409214777101    8.86817891992904
Cl       -0.55133990802827    2.33201358490329    8.27110706027573
Cl       -3.40076450325324    3.64182494177612    8.92569700932166
C        -0.24660227778650    5.75726087088510   10.28527213437151
C         0.43832153452135    4.51773129098805   10.36273920170419
C        -0.40661660575903    3.58280441167849   11.00450049719602
C        -1.63004095708095    4.21335150945881   11.27313273872860
C        -1.55405688147411    5.54083354574485   10.79485267543243
C        -0.48841203277575    6.30833501218263    8.12082592010276
C         0.09379036345707    5.29632195520156    7.31303362930720
C        -0.91377333432769    4.74245684909304    6.49073618236888
C        -2.12808449781344    5.35920459396976    6.81536069009837
C        -1.88298019655931    6.29531777310135    7.84417288911668
C         0.14703473470846    6.90771066547558    9.37735564212245
C        -0.48246010601298    8.26603614539544    9.74498480977698
C        -0.50968415215586    8.63500902166237   11.23408601632130
C         0.70187501113514    8.18825089490517   12.04805958524011
C         2.03984557221610    8.44577753654317   11.35689799872750
C         2.47352380050801    7.26800277806623   10.48940529651433
C         1.66968922365976    7.06607952405445    9.20471603504750
H         1.47270600632312    4.33161659018661   10.10445170734067
H        -0.12911044007210    2.57797320324590   11.29523472812327
H        -2.46569539705525    3.78214538886739   11.80862622120844
H        -2.32652806524420    6.28644313424634   10.92769603247816
H         1.14519767866271    5.06270549602107    7.21015929779269
H        -0.75484854453793    4.01617452741254    5.70473599412307
H        -3.07911385545806    5.19637334055120    6.32605255036293
H        -2.63459681829402    6.97140072725762    8.23076104227306
H         0.07047761594007    9.03259177716875    9.19883466879279
H        -1.50944449824799    8.31211148126205    9.38246528512334
H        -0.59886275284083    9.72246217353825   11.29613493227068
H        -1.40043842293649    8.21659306383505   11.70548720714432
H         0.67390104855240    8.71878621702540   13.00238334897421
H         0.61875927209520    7.12199402691058   12.26904005092784
H         2.80792329151665    8.59732312511445   12.11866557050351
H         1.98790000575372    9.35827983971716   10.76095344964518
H         3.51787464614228    7.40935676710013   10.19889954631609
H         2.42379005784305    6.36150513559577   11.09623690797068
H         2.07789517993469    6.18274393709031    8.71222061704027
H         1.84179282082165    7.91340499499734    8.53624590988438

