41
CSD_code = YAZNES | q = 1 | S = 0 | Stoichiometry = C11H21ClN3O4Pt(1+) | MND = 6
Pt       13.89932398226136    4.51296172477458    6.98686537024045
Cl       14.18695973094647    4.82386626937067    9.28413590175222
N        12.22033997139790    3.24197267356662    7.33496988557227
C        11.07079108864418    4.06998994130972    7.77589829362865
C         9.74577921915325    3.30561111269977    7.61361183312560
C         8.57323775444068    4.25706430200848    7.34091938383048
C         8.79403541681268    5.58366520242456    8.05426755090569
C         9.97151967819933    6.33262075599293    7.41971389497739
C        11.07655826519564    5.36605590429947    6.95322628028354
N        12.41271990361482    5.96930122581086    7.09463846881745
O        15.34491221258574    5.85045916166125    6.64361523172190
C        16.55849419119126    5.45343168068993    6.88905662110932
O        17.52108774193155    6.15630688982797    6.80264114310895
C        16.64832040397655    3.95279584923123    7.29279637517323
N        15.50342153614702    3.23231526477642    6.71128883968615
C        15.33541292593903    1.91352303425496    7.32632604729999
C        15.67509699727368    3.11229789474546    5.24604840349872
C        14.31988910810776    3.21469510904013    4.48676112779745
O        13.48765375494870    4.05633823452101    5.01188763406712
O        14.09423382027030    2.56856575534728    3.50371945876774
H        12.35167040846258    2.47785027814640    8.00025624579557
H        11.98774828756586    2.83255118932198    6.42167878662745
H        11.24339070328946    4.32519602409086    8.82722233320002
H         9.55127133443771    2.73241402350711    8.52016543421019
H         9.82596036247327    2.59867228398660    6.78557473751329
H         8.47217189287192    4.43878237722477    6.27072515850974
H         7.64953932419820    3.79410483141700    7.68321134550531
H         7.90002480796341    6.20071528742019    7.98494908744105
H         8.98296253903550    5.39845396890846    9.11206404264338
H         9.62054637201644    6.91089522852189    6.56550566775284
H        10.37936301486930    7.03547825722128    8.14825646214224
H        10.94417376520867    5.10697758500305    5.89647009194226
H        12.59192250492168    6.66188951339246    6.36153123552263
H        12.49963719115161    6.44366672845979    8.00123900069473
H        17.59985751881191    3.53540333385923    6.94966854290477
H        16.61599183454669    3.89628611715183    8.38505050328176
H        15.08115057115641    2.02415085394964    8.38188834315171
H        16.26665137757382    1.34372188877309    7.25735980697817
H        14.55676163489759    1.35245518899462    6.80728485147698
H        16.17220929090422    2.17520226137770    4.98307849147828
H        16.28260756060509    3.94169479291992    4.86933208586298

