50
CSD_code = YERMEQ | q = 0 | S = 0 | Stoichiometry = C23H20Cl2N2NiO2 | MND = 4
Ni        2.10599185165885    6.08202923056095    8.57784361468774
Cl        1.74447001628868    7.39527155867745   10.10149379534999
Cl        0.47697090309016    6.74227621504316    7.53242088061342
O         2.88260782708924    2.28873527275217    6.98285748994141
O         6.16274221026908    5.10898711962932    8.99049704738525
N         2.16582866792002    4.27433778882617    7.69983740407583
N         4.07645439845732    5.89441068102901    8.95903315278126
C         0.95549587731515    3.56914235627242    7.30191226097119
H         0.35473303682665    4.19856362656881    6.64170554630955
C         0.19591724390049    3.12359241020627    8.52685386699420
C        -0.31328175407145    3.91798201976657    9.53526631267865
H        -0.22533585148094    4.99713039104686    9.48702802056729
C        -0.93156451445916    3.29920915268653   10.61139401555892
H        -1.33673042263350    3.90114033880503   11.41011185119238
C        -1.03065016967669    1.91823004074641   10.66941853947470
H        -1.51964413692323    1.45117805344990   11.51147055231768
C        -0.50185637517375    1.12496244514723    9.66128450986262
H        -0.56998676033406    0.04826306369762    9.71450699185302
C         0.12219742841806    1.73706174996172    8.59141808000770
C         0.78168181828338    1.09159336643710    7.40640354255276
H         0.04318234837562    0.62429023354597    6.75260751401352
H         1.50614508319055    0.32996094813260    7.69916689477123
C         1.48178036168165    2.25127706092796    6.68265658635296
H         1.38166191301564    2.18903457815769    5.59506860341120
C         3.14758553086523    3.47432486047519    7.55729534518723
C         4.54400076332505    3.69439042658223    7.95838461111608
C         5.34954432954154    2.45954144343692    8.34372501661335
H         6.05985540439983    2.58585496779182    9.14603889512763
H         4.81739052899207    1.52119061312113    8.34686532559019
C         5.62198292570016    3.11712699777654    7.04731936876789
H         5.27629023855441    2.64047657797737    6.14312259378752
H         6.52306996366322    3.70062077311922    6.94060943906813
C         4.87209169368468    4.94695743991858    8.65322484034424
C         6.28944147920237    6.38219107036979    9.63641006048272
H         6.59571754686651    6.19559451798402   10.66995815299039
C         7.26802757095162    7.29873519332408    8.88816039638135
H         7.87334242109191    7.86801908201129    9.59589179010197
H         7.94072693848910    6.71145454873370    8.26119470323737
C         6.38253353044238    8.20616765143745    8.08310034675381
C         6.74823565585337    9.10737599300906    7.10198853377930
H         7.78659379703867    9.23528177602797    6.83342815604956
C         5.75675004138777    9.83778223248256    6.46282341639793
H         6.03001666599617   10.54306898653233    5.69196717788191
C         4.42242285265275    9.66404639547084    6.79396709287239
H         3.66238748739184   10.22871253506537    6.27616355422224
C         4.05153985363160    8.76563445044282    7.78314996354777
H         3.00960738045053    8.61819849778639    8.04151742694504
C         5.04448043470235    8.05546104184847    8.42869937425761
C         4.87468243599455    6.99235900094185    9.48588361793179
H         4.42307152810042    7.37977322426493   10.40175372684245

