46
CSD_code = YEZQOK | q = 0 | S = 0 | Stoichiometry = C16H25AgClN3 | MND = 2
Ag        7.06474527691494    3.08265534773618    0.73916684909103
Cl        6.70128267243728    3.82740402727116   -1.34154333282544
C         7.46165997943383    2.32131053478756    2.69604786678656
N         8.68297311143804    2.16914772765946    3.26460118416404
N         6.54846373992445    1.90473497371377    3.60327672204409
C         8.55564246632212    1.70067430796956    4.54761501219053
C         7.17032408422421    1.52854763873054    4.76166088331183
N         6.61451483304820    1.12232006079780    5.88931359321441
C         7.46043436937563    0.86373458551478    6.87186263655286
H         7.00516322273470    0.53034267818029    7.79337474059113
C         8.84427421860391    1.00581944242729    6.77579896284093
H         9.46102258824171    0.78352106180270    7.63166787225519
C         9.42630351011578    1.43877749535791    5.59465805538446
H        10.49353667469856    1.56991700354101    5.50848407913330
C         9.91978572885997    2.49600126166122    2.60372276483741
H        10.60747004195496    2.91849796599664    3.34142780088433
H         9.68719056143324    3.26642005347401    1.85735326397945
C        10.60323150026206    1.31262768975214    1.87940072862318
C         9.60659059772700    0.58668511889154    0.97733229225104
H        10.12464157045017   -0.13981361701699    0.35686865718408
H         9.09063368197215    1.29293768428324    0.31772289268706
H         8.86207305718764    0.05495270527146    1.56647976834573
C        11.19073382869599    0.32190736351809    2.88733327829621
H        11.92942122528491    0.80692039262958    3.52216335480210
H        11.68318934453291   -0.49247145797427    2.36152539156551
H        10.41356318987620   -0.10687679102539    3.51618849557395
C        11.72892993131779    1.89927585901972    1.02458977948184
H        12.42326393665767    2.47126722590819    1.63631024937681
H        11.32248356809506    2.55470144485163    0.25805928025320
H        12.28285614829496    1.10323152724361    0.53403763830035
C         5.12221586911992    1.90550482614838    3.40954168480824
H         4.88510437901030    2.71299963850613    2.70671577090845
H         4.66450942667223    2.11719605829573    4.37889692456482
C         4.54981590320656    0.58076508311519    2.86057074519963
C         3.04288050391635    0.78241889422910    2.68639416488226
H         2.84312761901210    1.57949077558718    1.97421796793694
H         2.57591446662448    1.03957630785121    3.63424326239130
H         2.58197755431248   -0.12931407540548    2.31542284893695
C         4.80461910524691   -0.55831679009879    3.84922402391711
H         4.32078915361633   -1.46833777875374    3.50278559555608
H         4.41541667641175   -0.30976336047282    4.83303624815405
H         5.86881538275257   -0.75923458083123    3.94839398860395
C         5.17613054638606    0.23917974963216    1.50936688215881
H         5.08548673672969    1.07750070370823    0.81221583854682
H         4.67548949107387   -0.61999955567179    1.07042779763439
H         6.23080852579261   -0.00793720781398    1.61754549462284

