36
CSD_code = YIKVIX | q = 0 | S = 0 | Stoichiometry = C18H15AsAuCl | MND = 2
Au        8.34405349480033   11.41112976504786   10.15448485381910
As       10.47899946113983   10.66370406633602    9.57811171178943
Cl        6.25473318308221   12.10699953809942   10.73354863562809
C        10.55111018815670    9.60049534435389    7.96895032344499
C         9.76776859545670   10.01959049021751    6.89638520307469
C         9.76590864294776    9.30261310428092    5.71356289826815
C        10.53876158099371    8.15708570706495    5.60161280010161
C        11.30879256912908    7.72781657443846    6.67023506863818
C        11.31606186056953    8.44632701738151    7.85415372460377
C        11.79635265091603   12.04329614856517    9.28134247583573
C        12.47037676014196   12.21313151000373    8.07826543399370
C        13.36819108696927   13.25762523489594    7.93054698435015
C        13.59209130714647   14.13533195378208    8.97796999710517
C        12.91487850532663   13.97733886459912   10.17778247639439
C        12.01523695990420   12.93829547764144   10.32688271070454
C        11.30135357553343    9.55189448543466   10.92539985968742
C        12.67637566181941    9.51119877040357   11.12892552544030
C        13.20603895527899    8.69315910076128   12.11211686592102
C        12.36718731733939    7.91546152063147   12.89438153398484
C        10.99564253978374    7.95541489736775   12.69980460171960
C        10.46352510124456    8.77455841510438   11.71954541408145
H         9.15511718183117   10.91231873080122    7.00807987392740
H         9.15913206802137    9.63048623181601    4.88240589601646
H        10.53523332421955    7.59388851955439    4.68036905391101
H        11.90384202931951    6.83041958971549    6.58161912339096
H        11.91150495295092    8.11028197796101    8.69861134085221
H        12.28655267648459   11.52497604066584    7.25801955595153
H        13.89270392285583   13.38744878459447    6.99501009993165
H        14.29203394465687   14.94865192716559    8.85814498861972
H        13.08519395437787   14.66759589347423   10.99081759447019
H        11.46605573287021   12.80628844914053   11.25707351718076
H        13.32679804540038   10.12981339906272   10.51621796426778
H        14.27441267275244    8.66267748925133   12.27029325709587
H        12.78418071367300    7.28056890107859   13.66183119403460
H        10.34276170353908    7.35458134556386   13.31548917598050
H         9.38803707942425    8.83013473386602   11.56280826577200

