31
CSD_code = YIVFIS | q = 0 | S = 0 | Stoichiometry = C12H12Cl3N3Os | MND = 6
Os        0.87333274134049    1.54006226631262    4.56252263067215
Cl       -1.41210880086929    1.39532814786682    4.88916765087154
Cl        3.00754964561614    0.87949684561079    3.96506458295049
Cl        0.50045632996176    2.15547696759007    2.43847559458093
N         0.51263983492104   -0.71512643219231    4.11197073396243
N         1.13400904613472    0.44273636291437    6.40596149075138
N         1.19223150837489    3.00968768165740    5.27267131417321
C         0.19084894531325   -1.18455355370820    2.92418937248293
C        -0.03697849992246   -2.53774464916007    2.67671181963034
C         0.09415932281520   -3.40452317000233    3.75494919095921
C         0.43409924358484   -2.91092721551003    5.00227411577117
C         0.63893400355686   -1.54147962007600    5.15543881868743
C         0.99179102761716   -0.89397562543326    6.42394793607309
C         1.17342416809973   -1.60331906161322    7.61081773108931
C         1.49426904903814   -0.93256608094973    8.77384139666237
C         1.63349655817111    0.45140154102865    8.74899612302634
C         1.44216283314558    1.08586029266254    7.52668292963799
C        -0.40525881960073   -3.00213385012362    1.30930793039702
C         1.97304666573985    1.24784583502287    9.96289726946286
H         0.10766866813863   -0.45374013461108    2.12884739844299
H        -0.06971031043470   -4.46418738627599    3.62218440969179
H         0.53358678107367   -3.58667936016246    5.83539878404203
H         1.06422733149070   -2.67482324873732    7.62374907216278
H         1.63457266289370   -1.47988090776256    9.69408732650185
H         1.54037504561627    2.16143258178711    7.44372631067004
H        -0.54085118423419   -4.08023366682036    1.28494698178840
H         0.37147036852823   -2.72645580524013    0.59748362003165
H        -1.32855023766825   -2.52216133756054    0.98764781274888
H         2.07518043550010    0.60712469280741   10.83420407109975
H         1.19704054853332    1.98636798716957   10.15499830027529
H         2.90618508752325    1.78638990350290    9.80833728070432

