47
CSD_code = YIXKAR | q = 0 | S = 0 | Stoichiometry = C16H22Cl2N2O2S2Zn | MND = 4
Zn        1.19555572283977    2.31338490509827    2.59776244301450
Cl        2.97522654420065    3.42482075515238    1.86794960339292
N         0.61642379119981    3.16493893242146    4.30483009890932
C         1.08847155966564    4.47705049049610    4.72884098402847
S        -0.47417321787875    2.55791429076246    5.25664380809666
O        -0.08945314096645    2.51099819471044    6.64814514390119
C        -0.85676632260822    0.90751897651241    4.66555542658784
C        -2.01393568111777    3.48409527151384    5.14693211360664
C        -2.55560014431339    4.02049893841363    6.30049642376911
C        -3.72714378733960    4.75398230462605    6.21660087816907
C        -4.33584199308630    4.94167827026998    4.98536530470086
C        -3.77925862634729    4.39945329284244    3.83701131878871
C        -2.60669930770827    3.66477864383736    3.90991095430146
Cl       -0.68983065637886    2.03612831436684    1.45544854624160
N         1.89487555578867    0.50234169889622    3.05178372801852
C         1.40907306064413   -0.71161495682716    2.40789413548489
S         3.09233934533985    0.25067160438765    4.03489720060036
O         2.84144003842425   -0.76562102595566    5.03015753425645
C         3.48190625421692    1.81144616717745    4.83002006680852
C         4.57959639943373   -0.22103043474633    3.13646970772085
C         5.20864653614159   -1.40890611205755    3.46060589843571
C         6.34066319372809   -1.78524839737285    2.75739741340266
C         6.82351979272698   -0.97306013648510    1.74303910849872
C         6.18024176324786    0.21410880122309    1.42794945388786
C         5.04632101061998    0.59936925929126    2.12489214363278
H         1.99363041300231    4.71376579517038    4.17623598358015
H         1.30536789300726    4.47473089930246    5.80037994718804
H         0.33753916774933    5.24576603095598    4.52070670571718
H         0.02183129434868    0.28575703280876    4.79822348633432
H        -1.67899686661558    0.54135595094303    5.27100876542814
H        -1.13266621000458    0.97006477048820    3.61690232141515
H        -2.05176076098398    3.85465329722753    7.23977237038869
H        -4.16127471651520    5.17853657185912    7.10886079483819
H        -5.24794427911533    5.51590582126258    4.92076588269369
H        -4.25425282656306    4.54861980897443    2.87994221359641
H        -2.15988078010062    3.24237202171321    3.02176450151095
H         0.44694151366765   -0.49852669783933    1.95002979400812
H         1.29362913449298   -1.51177680896867    3.14383126621936
H         2.10377189147381   -1.04307296576551    1.62968000386365
H         2.64437409453682    2.09188853959397    5.45930211811872
H         4.37070583776178    1.64401234904696    5.42891858051715
H         3.65614468605478    2.55826847257902    4.06093416748404
H         4.80226686436934   -2.01518914170352    4.25487450322511
H         6.84221341735892   -2.70962558383210    2.99986316450612
H         7.70491427685674   -1.26869188397783    1.19387248492540
H         6.55708425004215    0.84347920777175    0.63693006327333
H         4.53306401470842    1.51910846385419    1.88520144288368

