49
CSD_code = YIXVOR | q = 1 | S = 0 | Stoichiometry = C18H20ClN2O4RuS3(1+) | MND = 6
Ru        1.55494500563371    0.60116598669457   12.11307303902099
S        -0.52662667471395   -0.43483955803036   11.77104906053866
S         2.44482325621911   -1.55246318922108   12.47537517513801
S         2.01199163183098    0.30948399609755    9.79825887949610
Cl        0.99721994187373    0.72620480111024   14.37721417131375
N         3.21232820174836    1.61057823369587   12.66540849808116
N         0.91015580317705    2.47955758088276   11.81575395265973
C         4.23262410899231    1.08228104859719   13.33616420328987
H         4.31675865858947    0.00246075047075   13.32418914491472
C         5.14276233743143    1.84433689991191   14.04437472451048
H         5.96436154521446    1.37027494011718   14.55556280040357
C         4.93702939656581    3.21201561547015   14.13526002234458
H         5.57544081658860    3.83537750432210   14.74077563446060
C         3.85820638414796    3.77383584334223   13.46391857921872
C         3.04460261345493    2.94516982899134   12.67805537038072
C         1.88058259828207    3.40833294468942   11.92105911927079
C         1.71782087748630    4.68045797198967   11.35757897055254
C         0.46142704842991    5.05369404971642   10.89629020771072
H         0.32191717117364    6.04669392987375   10.49854754186102
C        -0.57578270402308    4.13593921561918   10.96272127404127
H        -1.57597969148873    4.40170690856109   10.66279210605019
C        -0.29163030922888    2.84799829689750   11.37768004081308
H        -1.05972088529658    2.08355202682013   11.37661384019429
O         4.56233275930476    5.97833902672642   13.86334935163993
H         4.30428999763852    6.88599297345431   14.09955460340221
O         2.36489133223936    5.57491570259542   13.91291886125354
O         4.00672585990045    5.00195205099583   10.91595287216439
H         4.70902018445431    5.64481221397959   10.71833663358581
O         2.72478857532721    6.82424354491822   11.07903902643159
C         2.84491677785163    5.63447330009051   11.13404638276576
C         3.49303376603414    5.19719288373750   13.75228266274805
C        -0.27829654084194   -2.03997246880318   12.60398303837476
H        -0.30956903405891   -1.75951513944027   13.66020603822004
H        -1.13089092397843   -2.67670457449051   12.36618226039063
C         1.03263141944033   -2.71829157435794   12.27490970260800
H         1.05957812475579   -3.11385875261006   11.26037615645590
H         1.21087525653344   -3.53409116200354   12.97614672743144
C         3.39866907010680   -1.85029860900782   10.93286166394900
H         4.32443297597352   -1.29499019238287   11.09077298180190
H         3.62782172826793   -2.91554216553262   10.89159559371203
C         2.72154898605570   -1.39295224354145    9.65930966312771
H         1.91425593941163   -2.05912498428008    9.36203148715153
H         3.45181839734600   -1.34674239588308    8.85093070944894
C         0.32189810337224    0.00755897751570    9.14071299015928
H        -0.11409482342948    1.00601449784109    9.08728933562717
H         0.43988667220273   -0.38039644732484    8.12829905440844
C        -0.53919759888222   -0.91237290845032    9.98125876613694
H        -0.22497556705867   -1.95160371877149    9.90834419012020
H        -1.57614857004397   -0.84175346160259    9.65179289061668

