62
CSD_code = YIZBIV | q = 0 | S = 0 | Stoichiometry = C23H30ClF3N4Pt | MND = 4
Pt       13.01893338047227    8.35310059219700    7.85935840819428
Cl       15.23616958836071    7.70034698946661    7.77383459226340
N        10.77862891235655    9.41781077418553    6.47830175792189
N        10.21774506061039    9.05023246365133    8.65010389413154
H        10.48877995372291    8.75826680950997    9.57525369488869
F        10.28969739728383   10.23914949370725   -0.62781026506200
F         8.88381464562329   11.54701806868267    0.34039061512663
N        12.90994155413576    7.67351858124415   10.83837672382838
F        10.89196832474777   12.21518953951449   -0.03071142066264
C         8.76818476398851   10.96427481933210    9.14820670592634
H         9.52607451924453   11.61095821136712    8.70393883796899
H         7.78682092798210   11.38072023951853    8.91444985470146
C        11.84698569849669    8.16248727957835   14.38615987952712
H        11.31486635176851    8.97338722457259   14.88623173813528
H        12.82724448417633    8.06488742607967   14.85757898851613
C        11.53307687599458    8.93174816685967    3.09527481189879
H        11.94200228202620    7.93995118072101    3.21049555773353
C        11.38339365459264    9.75724315883859    4.20486617378808
C        11.76102697447289    9.31222553349773    5.56549099966093
C        11.13777277918618    9.36465670837341    1.84274597656611
H        11.25274093926761    8.72366406881650    0.98224975680754
C        11.98236974333604    6.05024217806602   12.34353416000200
H        11.00628706502434    6.15505284974207   11.86346931031357
H        12.52204613406618    5.24875010927758   11.83655633057747
C        11.79905488774988    5.72010997770277   13.82177071620320
H        12.77651528940763    5.56243152944715   14.28269703449010
H        11.23077798746706    4.79374502201675   13.91795052669218
C        10.59096708996539   10.63153859267040    1.69886071354127
C        10.81035250804778   11.01707036210566    4.05141541386226
H        10.67709163213473   11.64184513777557    4.92026151309350
C        14.02271912442765    8.80661010840330    4.94426809701452
H        14.96144219258045    8.99621854798087    5.46506584885903
H        13.89570293582094    9.54137828417118    4.14489483260516
H        14.09004371274117    7.80706036778905    4.50501624391712
N        12.94214009192416    8.86333976218817    5.90345694751396
C        11.12907415001879    8.99709932381276    7.68255925214733
C        12.02498500552809    8.50590897623618   12.91036934148975
H        12.59018953041477    9.43306773271644   12.79858824937094
H        11.04457990001936    8.64780033615625   12.44867016057981
C        12.75854160009217    7.36468303354423   12.19430241454631
H        13.76210711986781    7.24865906291718   12.62296758725368
C        11.07479599490884    6.85515897804100   14.54054491029429
H        10.07328507794677    6.97212373239037   14.11973717632653
H        10.96575591415126    6.61290294239140   15.59861357365130
C        12.93997222272978    7.92211625818224    9.69808875035502
C         7.92628480731547    9.96411559547980   11.29046381529374
H         8.07555598043032    9.91799650714139   12.37156963027890
H         6.92198112739655   10.35323786753033   11.11001810819318
C         7.87119944653643    8.61167187408643    9.17151527794557
H         8.00058562914895    7.61282652474453    8.75086827160738
H         6.86188463610644    8.94977866374011    8.93113079986345
C         8.94826666544728   10.90806394163919   10.66302355654034
H         8.82813225493021   11.90936971336429   11.08063719815484
H         9.96109210366926   10.57486171601924   10.90191960799126
C        10.42188465890793   11.45957644466745    2.80293492817217
H         9.98508654868104   12.43864287355916    2.67661499372239
C         8.87033057856637    9.57014106230343    8.51755217693464
H         8.68279514105269    9.64000416847528    7.44238691784243
C         8.03464136120260    8.56534279622148   10.68989842902522
H         7.26397644565512    7.91979824051392   11.11607365443957
H         9.00205519630049    8.12641283014152   10.94877745703146
C        10.16868143976428   11.14420864495686    0.35246879043476

