60
CSD_code = YOLBUY | q = 0 | S = 0 | Stoichiometry = C27H27Cl2NNiP2 | MND = 4
Ni       16.69879281776199    3.87521829864583    2.57662465455018
P        15.19109410038864    3.40094350024998    1.11326280865027
P        15.00341604492164    3.35342259385526    3.78149497377330
Cl       18.14675443944481    4.35343985440967    1.15856090743097
Cl       17.79555164538688    4.38910800727846    4.26785003867761
N        14.04934868245841    3.08208946659697    2.36489242252654
C        14.53898005132679    4.83399128368061    0.19510537160879
C        13.58694531261560    4.72487781644104   -0.81203851926246
H        13.23628046491867    3.75110876368207   -1.12522763595581
C        13.09989531680049    5.86907975144128   -1.41788952215368
H        12.35960621369715    5.78760184498449   -2.20024807318959
C        13.56154254281919    7.11668420555373   -1.02812969743553
H        13.17854337552070    8.00471246145582   -1.50861663918400
C        14.52195957265124    7.22673863102666   -0.03511949986870
H        14.89352445388874    8.19758116182364    0.25607246402532
C        15.01063991510023    6.08623044197768    0.57397145050917
H        15.78647723511842    6.14664335407963    1.33363025852468
C        15.05324124789959    2.06840124551949   -0.10491814270947
C        14.34303722514297    0.88932487306768    0.07666174504333
H        13.76826235875586    0.73467844300056    0.97822258696775
C        14.36693464401968   -0.08562267050684   -0.90552769084339
H        13.80462470192642   -0.99810882782980   -0.76891200463782
C        15.11214690527713    0.10388491022052   -2.05728730383429
H        15.13064591126934   -0.66247579899841   -2.81783057172125
C        15.84513725502628    1.26890422256084   -2.22890760389159
H        16.44089079172354    1.40750666146567   -3.11875189824377
C        15.82104299343675    2.24756211576860   -1.25503984371747
H        16.40166657077602    3.15506214047161   -1.36054845147301
C        14.16445706244586    4.60888498329933    4.79723861068394
C        14.53655197311508    5.92791105152065    4.55989052472228
H        15.32391088729346    6.12868932315562    3.84116358185869
C        13.93514091864710    6.95895857213905    5.25696076966429
H        14.23069828153659    7.98076234762312    5.07315687123659
C        12.96179543541510    6.67429583859061    6.20083134592003
H        12.49117295265611    7.47553481116752    6.75081989271796
C        12.59805870565717    5.36024939644340    6.45119336972893
H        11.84634193126895    5.13993764026013    7.19501591814948
C        13.19634547994655    4.32550371793408    5.75490519350482
H        12.91548620489265    3.30235669942355    5.96331173154478
C        14.96121686386654    1.83346042796229    4.76390883033004
C        15.23532057541509    1.90597075147586    6.12764211436846
H        15.38283147783324    2.87109166764588    6.59229766272638
C        15.33297886271524    0.74515486986695    6.87231038964516
H        15.53712620840444    0.80277976152631    7.93113966689901
C        15.18063991938012   -0.48924601742780    6.26128943807450
H        15.25685548165832   -1.39391014834308    6.84594390924190
C        14.95914992563222   -0.56536037436816    4.89520239235943
H        14.87530637988493   -1.52875212580096    4.41339037202105
C        14.86557795033868    0.59150357245999    4.14517671239587
H        14.73499909359506    0.54129085630584    3.07316180879814
C        12.60202883077696    3.04682782553221    2.17082587957746
H        12.45428378940490    2.76781285153896    1.11811349659163
C        11.94703865946607    4.41149002718374    2.39126746784608
H        11.93546619339232    4.66758697787808    3.44694564771897
H        10.92228374874413    4.38846061888282    2.02783360439400
H        12.48810775945684    5.18529140709004    1.85183741023380
C        11.95176527465829    1.99614322440464    3.06443808479217
H        12.32260061202368    0.99953074977568    2.83957774321044
H        10.87433038569540    2.00549643796144    2.91855007773553
H        12.16404938471593    2.21250350497568    4.10840289714386

