44
CSD_code = YOZDAS | q = 0 | S = 0 | Stoichiometry = C19H22Cl2Zr | MND = 12
Zr        1.94302930592032    7.87602454602720    9.15037771841283
Cl        0.20034872200334    6.76675141027035    8.09850430467570
Cl        2.25877220413674    9.34527434703083    7.37319871514235
C         2.52456178778324    9.46862022881918   10.92118375038286
H         3.49793861553065    9.93083469992031   11.03008020080706
C         1.40714570648146   10.08563767852382   10.32001672670240
H         1.39095339877207   11.07974522583559    9.89048220138681
C         0.28419800211605    9.24385886826848   10.49133826927032
H        -0.73647011317836    9.49463119420809   10.22771291675959
C         2.97331088313102    7.03410415978658   11.83022519202549
C         2.11491197274371    5.91412959877554   12.45611578586403
H         2.65046829904225    4.96761767641100   12.34967175280589
H         2.03109863943467    6.11112462151828   13.52701535966244
C         0.69884720267105    5.75466655222836   11.88459537681248
H         0.18699143144665    4.98386627523045   12.46654166694725
H         0.72604790454136    5.42113924211062   10.84172041659587
C        -0.13376655872107    7.04819403427930   11.90398521026053
C         0.70143851603776    8.10578451194930   11.23121735679541
C         2.09444729253150    8.23992659474871   11.49784600946806
C         4.12281252417823    7.38656410036929   12.78177698986795
H         4.72730936269145    6.50427242011815   12.97930944665251
H         3.73101605623045    7.76112912024317   13.72497039872028
H         4.76420339266586    8.15145945024326   12.35383109981784
C        -1.46183427282972    6.80990477190124   11.18173217472460
H        -1.98279713179865    5.96756697159489   11.63216646816951
H        -1.29374160109841    6.59329899961653   10.12790680824265
H        -2.10220473599693    7.68435219117218   11.26624180003828
C        -0.42398806935026    7.48586388370574   13.36343521457070
H        -0.97149540603511    6.68724702655193   13.86750352649806
H         0.52562941417510    7.64008367813903   13.88057216211006
C        -1.20206729316016    8.75969819751096   13.43964688502241
H        -0.71789786607272    9.62107851856076   12.99923073725739
C        -2.39024675036530    8.87578996085657   14.00166130191869
H        -2.89232490233804    8.03299640946605   14.44826741347754
H        -2.91253604922404    9.81631253146467   14.04544811146125
C         3.49843796639462    6.63899493405498   10.44282771671922
C         2.92673571053901    5.67501925406479    9.56386076994699
H         2.38682980660006    4.77832132803662    9.83758985837794
C         3.39781923554750    5.93000077224246    8.25403941995836
H         3.21768693141627    5.30267827821710    7.38954561768114
C         4.25337447035170    7.04544385888588    8.30459424433056
H         4.84267988862371    7.43319531097271    7.48346267672345
C         4.31137377772179    7.49260577851964    9.64091362929197
H         4.97775232870757    8.26929078755053    9.99593659764338

