39
CSD_code = YUDBOP | q = 0 | S = 0 | Stoichiometry = C15H19ClN2OPt | MND = 4
Pt        0.84825301268800    4.67652399080221    4.78465060204995
Cl       -1.24715011528033    4.49188314702232    5.56533298265215
N        -0.04688647752941    4.12307766815353    2.91965156466908
N         2.85862596370807    4.85299563563886    4.11173342540492
O         4.07802064700105    6.07438823222313    9.83695431124203
C         1.67231215518917    5.15426932345046    6.54031893240279
C         2.99017215451134    5.62491713681334    6.41686114163885
C         3.76028384390077    5.91832184610901    7.52434643329185
C         3.23345188505069    5.75772849954450    8.80506504792617
C         1.93257951247639    5.29778353617575    8.94717074411995
C         1.17128253518928    4.99849821343606    7.82488363569075
C         3.59684338585460    5.94309022293309   11.15021653313836
C         3.51090813237842    5.81931988576694    5.01543811976659
C         3.46701354098973    3.53486260166507    4.29200626510255
C         3.01605515784544    5.27629765677908    2.72455506153677
C        -0.44784905806203    2.86001502468948    2.79817046628260
C        -1.50022556486188    2.48147557647174    1.98437584011771
C        -2.17425778808216    3.45823147858529    1.26801609885697
C        -1.75817971936774    4.77429476679332    1.39356321329829
C        -0.69329742818903    5.05862208178533    2.22952131265288
H         4.77347889092924    6.27884139696805    7.42444786702400
H         1.49378104343102    5.16463900190854    9.92385074089419
H         0.16135545421635    4.64399728011563    7.96869883088729
H         4.41815719703404    6.24658817128449   11.79820971727201
H         2.73480426779066    6.59398945367398   11.33068452329815
H         3.32160702231707    4.90755627596682   11.37752991150700
H         3.25031467162364    6.82917375708004    4.68027429741017
H         4.60408140649533    5.71465027924414    4.96523211846894
H         4.52641653098192    3.55155219781396    4.00332388508968
H         3.39246414411424    3.24068825618332    5.33908694218528
H         2.94983842104756    2.79792873179231    3.67667436318301
H         4.07737231530888    5.37977948517327    2.46317348154096
H         2.56494331843550    4.54310638911850    2.05615911737429
H         2.52470786426615    6.23717818087441    2.57214030836489
H         0.09273562675738    2.12589485621490    3.38488910489495
H        -1.79265291432033    1.44506861383050    1.92466516343170
H        -3.00830060227584    3.20080554988993    0.63281200318718
H        -2.25645340248439    5.56952555379253    0.86194954237290
H        -0.34550703107770    6.07684004423716    2.35846634977287

