51
CSD_code = YUJDUD | q = 1 | S = 0 | Stoichiometry = C21H22ClN4O2Pt(1+) | MND = 4
Pt        7.30700185952398    9.42789772648635   14.30446189491508
Cl        6.82013204456170   11.14368773553942   15.63088526555073
N         7.72665764018914    7.95873009224893   13.16901174662778
C         7.84920739112449    8.19007111560266   11.85133574070259
C         8.16284375396085    7.14669145157578   11.00451176967159
H         8.27501020902516    7.27292666409798    9.94149573979819
C         8.34587648742535    5.85371804677599   11.53900398473935
C         8.20361671980883    5.65927689416864   12.92315473955793
H         8.34016001479020    4.68478269165078   13.35854519833486
C         7.89100533331307    6.75073960903273   13.72160925776314
C         7.61422526613969    9.60163406201607   11.51100453514541
N         7.32831178824099   10.41603795220904   12.56480533532299
C         7.09996574883492   11.70815383065940   12.34946578954723
H         6.87866320121595   12.30734151447476   13.22424510359815
C         7.13959371325719   12.26839932814515   11.08258906682501
H         6.94686761569712   13.32091310793252   10.95543637864632
C         7.42829943026747   11.45417111731274    9.99812246942910
H         7.46616979645674   11.85817433151429    8.99877047431590
C         7.66833053978932   10.10659568573081   10.21763012377060
H         7.89484297169003    9.45004412128880    9.39390554956348
C         7.70628471963383    6.78066586382441   15.18042944004145
N         7.40966274082201    8.00372882606167   15.70392019668585
C         7.22844536469767    8.12859811918483   17.01520983981610
H         6.99530801684950    9.12414285554149   17.37282384822252
C         7.32940970886401    7.05486252324934   17.88520708437197
H         7.17521461151622    7.20324070682692   18.94123075121890
C         7.62939615086935    5.80256130046219   17.37120903348012
H         7.71503901872522    4.94530263700982   18.02012029742964
C         7.81901683623199    5.66735615925388   16.00486575647787
H         8.05311583470522    4.70436416783325   15.58184401795984
O         8.65394910139052    4.91223831780543   10.66171965267331
C         8.80873705595316    3.55761189139395   11.06621905694757
H         7.89956536186677    3.21514559888154   11.57177632322349
H         9.66547615219537    3.46421228568973   11.74480684294714
C         9.05174189577012    2.73824403614665    9.79698637917337
H         9.84669222852132    3.22959187928360    9.23271253844352
H         9.40209094569832    1.73513483283954   10.08726329378761
N         7.85451855009544    2.69741972872389    8.98226738457982
C         8.12562557888691    2.63597844138309    7.55385644646262
H         8.62004556863810    1.69048646735439    7.27578224986382
H         8.77212785662638    3.47109571636287    7.27828632443428
C         6.80100027841849    2.74826497753492    6.79712038585441
H         6.34645618684389    3.72726477624854    7.01375303458217
H         6.96258361534631    2.65067844488549    5.72293108248369
O         5.91450989713273    1.71937774762996    7.16055607433565
C         5.66170069386446    1.74860602259298    8.54165256338946
H         4.98975546339229    0.91498820576581    8.75037277848575
H         5.16849485263661    2.69525401042113    8.81278682552621
C         6.95562168167821    1.61306487940690    9.34653323934152
H         7.41157864667236    0.63045030847965    9.13518315378676
H         6.72545386014730    1.66868119345543   10.41238394013632

