57
CSD_code = ZACHUJ | q = 1 | S = 0 | Stoichiometry = C25H24ClN6Os(1+) | MND = 6
Os        8.10932856111948    5.13079146445215    4.87724644808690
Cl        9.19665325306521    3.03514717125374    5.17914397109579
N         9.94617735480091    5.78489451067615    4.43696210860067
N         8.24817088609171    5.42593536354720    7.00321490990953
N         8.16119917548531    4.70469367100784    2.93152892504272
N         6.25828125020095    4.47198381142650    5.29786863895290
N         7.06431109697303    6.78735143993681    4.53976531393140
N         8.55013428459620    4.33058396414745    7.72310474020430
H         8.83662008564056    3.48932460351736    7.21051869818012
C        10.39080151029134    5.45181203781548    3.19910494420704
C        10.80750863526782    6.35157564796825    5.28576738044328
H        10.41845123660996    6.60268822667062    6.26338314309639
C         7.54676790518856    7.92684825250164    4.03006132919935
H         8.61136754892400    7.95190669635128    3.83699506701373
C         5.28371355999148    5.41637360443011    5.27925815954466
C         9.37341092453126    4.84911814503667    2.34246590951308
C         7.16655525128707    4.17583548783438    2.21733152024919
H         6.21387377967541    4.07144692059935    2.72010228447078
C         5.73009882414005    6.71523464465142    4.78980304481219
C         6.76489261073442    9.03031135135947    3.76352187297926
H         7.21129988315613    9.92155412041843    3.35432927349063
C         8.01941244095785    6.40337417497211    7.88473566915301
C         5.93986019610455    3.23613093184233    5.68865933568050
H         6.74525277868610    2.51340370779209    5.66985639550102
C         8.84009686269368    3.53312963805639   10.04808373230135
H         8.03913393097953    2.79561520279221   10.08575471674030
H         8.94472229945281    3.98122857900427   11.03135560419732
H         9.76158154280237    3.01423684820110    9.79170988198577
C         3.98184967230705    5.12367841997778    5.68228697493968
H         3.22607218617384    5.89136870519680    5.67779212343823
C         7.65658313231632    7.79662508243369    7.50937474786082
H         8.22160064563360    8.12747369339395    6.64097601918314
H         7.86477864855534    8.46163173050951    8.34322095449423
H         6.59450654430475    7.86895243407638    7.27573178659439
C         8.18754802990164    5.90689283122341    9.18169154805835
H         8.07478756385176    6.45435761309977   10.09396186067869
C         4.66833318940242    2.87819008366076    6.09173479082316
H         4.46635884821156    1.86532317729221    6.39865491391163
C        12.59291336310454    6.25753547991463    3.70633524862365
H        13.61995541473054    6.43095115516105    3.42870919349775
C         8.53474633063993    4.57560166041158    9.04122526953597
C         7.31297199075155    3.76048080681351    0.90945173247877
H         6.47604220367910    3.33218074119041    0.38306145238179
C        11.71110335129587    5.67797934056940    2.81442839427387
H        12.04683181930915    5.39168976693915    1.83190301914286
C        12.12661059965109    6.60534745717061    4.96870545779614
H        12.77860287931133    7.05768536907835    5.69768402107628
C         3.66773595998423    3.84291761283142    6.09630539854796
H         2.66642224203746    3.59990505596658    6.41354785132638
C         4.88504225989586    7.79690616229990    4.54760966585175
H         3.83079306079469    7.71450019768913    4.75308175040144
C         9.59017185908506    4.44921001438642    1.02472268140999
H        10.56320000854560    4.56340756922665    0.57734110912331
C         8.55429275243805    3.89464248073318    0.29882261120770
H         8.70802379611395    3.57024407122237   -0.71765148649588
C         5.40136135082265    8.97081515645748    4.03468161906335
H         4.76198262774818    9.81687591273423    3.84317627218791

