58
CSD_code = ZALTOY | q = 1 | S = 0 | Stoichiometry = C19H28Cl2CuN6O2(1+) | MND = 4
Cu        4.96305981473685   10.04796432335839    1.95009223495590
Cl        5.06255835030042    8.49196973829272    3.43009749515398
Cl        6.44789199457795    9.47109864967039    0.50541596473109
O         1.23927063552602   15.09854650329503    0.71367012825522
O         1.21203092066266   15.11907428424026    3.01190262751394
N         4.35481287196823   11.41446152914215    3.19577092583566
N         3.36142646695102   10.65935090987422    5.25418123985699
N         5.51812310047390   11.09598846522045    5.19806387877291
N         3.85641362488853   11.00298123092013    0.66676644129654
N         3.85240923081483    9.75769657014379   -1.31158701823731
N         4.90014193363095   11.69189044242409   -1.38986827310287
C         3.41746389789540   12.22215392545278    2.62917319745326
C         3.35298213688345   12.14964560277620    1.19999681869937
C         2.67211045728708   13.13117418409066    0.46145960409996
H         2.63426224781447   13.10029972535829   -0.61392374931546
C         1.99009017488175   14.08210576626324    1.17285936417840
C         1.97169608042580   14.09343865510749    2.58899907721744
C         2.66776292163305   13.17845752936658    3.33345731982135
H         2.68994996984577   13.23015704183160    4.40852331817928
C         4.38482910376315   11.07564522242193    4.50567518073135
C         3.83473748386563   10.20404039858105    6.55369722967383
H         3.59262162549681    9.14649367132640    6.68478842599781
H         3.34752814795420   10.77904829179622    7.34638253536662
C         5.34914596451430   10.44929493195120    6.48757374680613
H         5.70852666449095   11.10380957162166    7.28496622103619
H         5.92028310546181    9.51634181617059    6.50606251207712
C         2.05578659315875   10.27078435274241    4.79869333395872
H         1.92130659314838   10.55667378859571    3.75846564681656
H         1.29028805209949   10.75498672591078    5.40766533177197
H         1.94652481298966    9.18677155482755    4.88402684183943
C         6.82632608061548   11.30326182781279    4.64425851765914
H         6.75087332035789   11.94457030468361    3.76872849835447
H         7.26438578156635   10.34550828516844    4.34693693404058
H         7.46337986465692   11.77432213687907    5.39129911405717
C         4.19263292239029   10.84891781319185   -0.63516802072411
C         4.53697004079060    9.70708167890042   -2.59166670467664
H         3.81588181948919    9.54122726989194   -3.39538106754982
H         5.26156721706769    8.88749360922877   -2.58663015585396
C         5.21619912099155   11.08179155072970   -2.67350693112071
H         6.30017147049287   11.00103160790025   -2.78648538276862
H         4.82157157387054   11.70105172419179   -3.48411382260697
C         3.26484634143399    8.57719410857620   -0.74397057669774
H         2.65321955579363    8.85313720093478    0.11244797932404
H         4.04873651152742    7.88844451238398   -0.41410418266319
H         2.64665933495226    8.08664709769619   -1.49430742710133
C         5.64194863293478   12.83932102749734   -0.94706575367254
H         5.40947385428576   13.05762219389939    0.09229746965655
H         5.39130001652657   13.70554090796083   -1.56214150137575
H         6.71230420466281   12.63781042004697   -1.03434660260032
C         0.71532432439911   15.79938700856671    1.85049234915065
C        -0.80883311764774   15.72925514626854    1.83445545991937
H        -1.18292033085539   16.21399115170946    0.93832832659494
H        -1.20342154584284   16.22932821883928    2.71311800561990
H        -1.13178593502808   14.69062219481996    1.83942714958052
C         1.22982610712054   17.23588566067166    1.84186250459902
H         2.31743523059678   17.23971821510982    1.85458492957977
H         0.86167929561833   17.75640133396321    2.72018391144939
H         0.88221332908400   17.73929038970791    0.94541937838346

