59
CSD_code = ZEDQUX | q = 0 | S = 0 | Stoichiometry = C20H28Cl2N8Pt | MND = 4
Pt        6.10385256357513    1.87940363880065    4.15443966987682
Cl        7.84087476079640    2.77735466616260    3.08149291448232
Cl        7.13233048744335    2.02459042609176    6.12453920560832
N         4.52252772143092    2.20493083950094    0.27270825284092
C         5.26200953241170    2.54666280300445    1.30052920880228
H         5.91466025802767    3.39743611304130    1.29469472273433
N         5.14693892951808    1.72441159716611    2.36209440327115
C         4.27305252529225    0.79857755138616    1.97500171546848
N         3.79085091746585   -0.24103385760005    2.62962128974375
C         2.91067093000097   -1.00032855780182    2.01153885867020
C         2.36586921235437   -2.16264078986728    2.77151820063828
H         1.29109107127545   -2.05130418531223    2.91178425043650
H         2.53875616644067   -3.08530973975256    2.22077834689995
H         2.85430696194603   -2.22745958492129    3.73942504317659
C         2.49298256669560   -0.73506773499744    0.68885822439836
H         1.77959282492538   -1.38689274573448    0.21146675134394
C         3.00103937889906    0.33832480539103    0.00266659925081
C         2.63591367945610    0.73226557917258   -1.38543709646076
H         2.54603077594056   -0.16391793387086   -2.00172266574524
H         3.42747900588288    1.36810082482909   -1.78402547360425
C         1.30369531430473    1.50776718839117   -1.43284516939684
H         0.51359649423291    0.86341696357847   -1.02953521299273
C         1.38900943249288    2.77514115680795   -0.58815448459342
H         0.47038277741263    3.35038925358761   -0.67727883488666
H         2.21941196667630    3.39432605317440   -0.91798769656570
H         1.53900032123628    2.53489003741964    0.46192768915659
C         0.97023269000451    1.84928264110923   -2.88138520641062
H         0.02081036869849    2.37572879588741   -2.93603590124475
H         0.89703479709234    0.94892471557867   -3.48680043023811
H         1.74083880117894    2.48841980686608   -3.30496667079575
N         3.88950751166071    1.10498795615801    0.67608836560366
N         3.39856478767803   -0.52585488637040    6.22820681890806
C         4.58065945376850   -0.03905814624891    5.92809260510525
H         5.49361898540574   -0.44025317237132    6.32232321617465
N         4.54568537691220    1.01800485532691    5.09753351222079
C         3.25301309799349    1.22043219241457    4.86055574755756
N         2.66389662945343    2.13855540588345    4.11980147790163
C         1.34955023726398    2.11706796831826    4.05874080286398
C         0.68415538132615    3.18087386262912    3.25370721145644
H        -0.00772455484299    2.74571885108770    2.53455428499643
H         0.11330275238745    3.83445836761589    3.91218799783584
H         1.43454709113490    3.77319729969904    2.73880240838898
C         0.58395895513341    1.14189513634133    4.73842557789497
H        -0.49069506351307    1.15471419655773    4.65613691907464
C         1.19744000486699    0.19159298985106    5.51285549849981
C         0.51729804600688   -0.86479464263285    6.30852257441579
H         1.01239459189201   -1.81847498166899    6.11346794647420
H        -0.52984171030125   -0.93295472402722    6.01024492225823
C         0.60698147829853   -0.58114479511381    7.82246094197777
H         1.66473763868341   -0.49706009041010    8.08796855626958
C         0.00015539591404   -1.74844727750582    8.59381468744644
H         0.52349138796164   -2.67394367039144    8.36724541395250
H        -1.05049753692612   -1.87184109536797    8.33849463848129
H         0.07306189277226   -1.56902303952901    9.66316845253636
C        -0.10441344460005    0.72231029966191    8.17250596025131
H         0.34672836745135    1.56783977786894    7.65739590780519
H        -0.04254507558278    0.90643922580688    9.24182945351215
H        -1.15599966913198    0.67036457061404    7.89599993555548
N         2.54742475785629    0.25640723871205    5.56655766070926

