66
CSD_code = ZEZDEN | q = 0 | S = 0 | Stoichiometry = C19H40I2N4Pd | MND = 4
Pd       12.34244763788048   10.11895241172380    0.25984853146740
I        13.76509126712572   11.92841032921957   -0.95470724478176
I        10.89728704142810    8.37946926694567    1.55956071346700
N        13.73023974749604    8.53323611816526   -0.38971834212590
C        13.67488267256244    8.26607122290622   -1.83558149111166
C        12.21376365382136    8.30256382127866   -2.29690257831518
C        12.11639394609362    8.04357773820509   -3.79600153895289
C        12.75154882242374    6.70133447690220   -4.14704706728893
C        14.20789348410929    6.66586969470854   -3.69324492716140
C        14.30607685221927    6.91818488439772   -2.19115208011670
C        11.18107204427353   11.52657991582847    0.92982779805944
N        10.03113467981175   11.86496952018170    0.39142520277678
C         9.49432103695719   11.24172024876432   -0.80013715104174
C         8.05345841729281   10.79136523931397   -0.57290439657454
C         7.52669526835645   10.09530208918479   -1.82451456203866
C         7.61977612081339   11.01991306730344   -3.03530572792721
C         9.05748566082018   11.48481011541664   -3.24944858142109
C         9.58568851739068   12.18491367170841   -2.00133074033217
N        11.59440623154884   12.17122800383274    2.01107290329757
N        10.86610694938015   13.21013274805087    2.61411688320256
C        11.52946748000177   14.50450461222481    2.40421573781270
C        12.99056938977917   14.53657874493074    2.86422035670061
C        11.42624393485563   14.88047152274332    0.92704683245276
C        10.52481501003966   12.83134902571342    3.99245135339785
C         9.58321887740932   11.62751340727528    3.93136103256321
C         9.84177188797906   13.96621410584427    4.74972061044687
H        13.45979692723552    7.68011886076462    0.11267015516825
H        14.69248075097423    8.75513423920554   -0.11479060830044
H        14.22423127830218    9.06703732455112   -2.34851970665149
H        11.64188404698415    7.54236787810826   -1.75275502567494
H        11.79282179910704    9.30127656785666   -2.06891666656904
H        11.06903182554606    8.05190098325598   -4.10489216381151
H        12.63183323064423    8.84240096104712   -4.33481703781599
H        12.19792377271773    5.89772232903910   -3.65559241241711
H        12.69537112627022    6.53605922769868   -5.22424599012604
H        14.65061303578634    5.69717269795091   -3.93222126318040
H        14.77354010278771    7.43364344439524   -4.22631410238813
H        13.78103231199420    6.12095982895628   -1.65545127966114
H        15.35422264007600    6.90284458737857   -1.87880349355482
H         9.49790445354752   12.61395487352694    0.82412653151577
H        10.11843401158475   10.34817333932883   -1.00079663578404
H         8.01393502055980   10.11046492668920    0.27964352860747
H         7.43373463850276   11.66296618781203   -0.34632409056620
H         8.11526892716827    9.19367617524336   -2.00725838037324
H         6.49137137076371    9.79006849722088   -1.66553867138665
H         7.26319182258015   10.49936906397936   -3.92571328583097
H         6.97786803300308   11.88973031783523   -2.87785541452895
H         9.68926139711830   10.62216279740030   -3.47397431019261
H         9.10903789800532   12.16516038754691   -4.10081885350933
H        10.62470919945694   12.48791300771001   -2.14962498788182
H         8.99535595729517   13.08276575886047   -1.80235286721054
H        12.48773698376466   11.89512182135455    2.43433193875286
H        10.95648476742043   15.23596260257786    2.97641607083170
H        13.08985222501658   14.17016491911062    3.88466872084367
H        13.61784317576690   13.93990397061178    2.20491407493018
H        13.35836447021446   15.55816511470586    2.83395365681862
H        11.96372304949844   14.17204839652780    0.30243921275632
H        10.38603849968311   14.91081876383084    0.61168718937301
H        11.86251688595600   15.86256828958231    0.76909758977641
H        11.43686081364467   12.53624039969137    4.54393015131547
H         8.66276180676816   11.90011955457423    3.42062685639363
H        10.03454579306888   10.78963094124542    3.40760257113594
H         9.33841012235868   11.29639568717664    4.93643966201356
H        10.53770424093845   14.75766762985480    5.01518875663125
H         9.03284318871116   14.38324488359530    4.15481616052179
H         9.42150176727228   13.57116675938434    5.67105289365372

