29
CSD_code = ZIRXIK | q = 0 | S = 0 | Stoichiometry = C13H8ClN2O4Re | MND = 6
Cl        1.79493478359482    4.16313534522098    4.72840621017712
Re        3.17834517350410    2.81584875047930    3.36064486286184
O         2.35929291373770    0.13476836984013    4.60955690911150
H         2.20542423632341    0.04302476100415    3.65608315819683
N         2.91377112825175    1.38643432445112    4.85446357867564
C         3.06133285231469    1.60039800508439    6.10758011489442
H         2.69621519061821    0.82736145267321    6.78198396686393
N         4.76020677153611    3.59950756381691    4.74201680249144
C         5.68419800979569    4.37659941160795    4.20858409961393
H         5.85613110004678    4.26692396328429    3.14444910139768
C         6.42299767380142    5.32024491829228    4.92578339600702
H         7.15151404784084    5.92636870583593    4.41205527295030
C         6.16407777797267    5.47639161403266    6.25984169195916
H         6.66711201838689    6.22766230372843    6.85052810854236
C         5.22393504000737    4.63052212341732    6.87869098841571
C         4.94448382918454    4.74086086951868    8.25649932015725
H         5.44990853147380    5.50790990556631    8.82377375609866
C         4.05619818850145    3.88952491044882    8.85231484551540
H         3.83154392155055    3.97549877963272    9.90425382515027
C         3.45569183543560    2.88010767378435    8.10099823390505
H         2.78711597134099    2.18845814977362    8.59212857676134
C         3.67640979294599    2.74168808280828    6.73941537784877
C         4.55113812571899    3.66070773945207    6.08061223290406
C         4.44160166697539    1.71636415295298    2.37373735293307
O         5.20078393077018    1.07338840908768    1.79715687410623
C         1.62702662004395    2.22883730828780    2.33973861574295
O         0.66850130661599    1.92021971952627    1.79442915684896
C         3.32435516695767    4.38333619513164    2.19997261375530
O         3.34605239475258    5.36800649125893    1.62370095611302

