44
CSD_code = ZITXIJ | q = 0 | S = 0 | Stoichiometry = C14H19ClCoN5O4 | MND = 6
Co        6.61756744904731    8.28440885617850    3.29837031071941
Cl        6.87529075979728   10.21748307073724    2.50303914556283
O         4.84014750409449    7.45848481418275    1.39379095867924
O         6.26302720726288    9.31406274035436    5.85670367677961
O         8.29235022229709    8.83962270246280    5.45496514019272
O         7.09227921871913    6.96987052171036    0.94864519605192
N         4.95267293416806    8.09123108022457    2.45342439398594
N         5.66726488360283    9.01876097949999    4.80771088901984
N         8.28104993747848    8.42416915712667    4.27950458227625
N         7.64454834577806    7.51129898486840    1.91926048638747
N         6.33818020077094    6.31215496881145    3.98422318471810
C         4.03225851541346    8.63607709702447    3.18388274544555
C         4.43295418292041    9.17351349003349    4.46858184398375
C         9.26231548310309    8.14192541383632    3.48784259524586
C         8.90903646073105    7.60109496149030    2.19148027370557
C         2.60025591481609    8.65174904222196    2.74192956451027
C         3.43655033621957    9.77969558226349    5.40859767557511
C        10.68950498217266    8.28033102274153    3.92185104802301
C         9.94956860084578    7.12041346640367    1.22603593329573
C         5.27340306722314    6.12980643208488    4.91980173994441
C         4.00625935638579    5.78236979149449    4.46808158916125
C         2.96295447197924    5.66980370472421    5.36970645019885
C         3.17937984077371    5.89773708514832    6.71842507449451
C         4.44651105306804    6.23219620386959    7.16772335872321
C         5.49590976028428    6.34455530435376    6.27483030111879
H         6.15184983153003    5.78075563145250    3.13080004527916
H         7.21918909580449    5.99763058464768    4.38990100312478
H         2.51814495851201    8.13417098110953    1.78901721495130
H         2.25170594127847    9.67543371875113    2.61676126712106
H         1.96721805309750    8.15883219911790    3.47785061033277
H         3.96041455568533   10.18525717335838    6.27072732521118
H         2.72760232555301    9.02524317423319    5.74847040316864
H         2.88519476483578   10.57671473695582    4.91470488429970
H        10.71905857864865    8.72315743343794    4.91467718352982
H        11.22905193447670    8.92291086162640    3.22886654053069
H        11.18628163197519    7.31101444043328    3.94681806441114
H         9.45433777611118    6.71836997656691    0.34532575693295
H        10.56949147767182    6.34578909867687    1.67531346478176
H        10.59463816797253    7.94347068356528    0.92390417803346
H         3.83976549007613    5.60634139183115    3.41524924801132
H         1.97911892028685    5.40090934415314    5.01568398992382
H         2.36249725209511    5.81291680755290    7.41867075279155
H         4.62052319521029    6.41014574699120    8.21748559563311
H         6.47797536022513    6.63021954169155    6.62056431413327

