29
CSD_code = ZITXUX | q = 0 | S = 0 | Stoichiometry = C6H16Cl3N2NbO | MND = 6
Nb        5.18394123610874    1.86440812762541    2.80885742763517
Cl        6.29675357659867    1.41941756546561    4.80672042176020
Cl        4.35742826505519    3.26400833127178    1.15162536249607
Cl        6.86140310548134    1.05712317516053    1.51228788240269
O         3.91992949737160    0.75057799358095    2.94517750517805
N         6.52603412606553    4.21649513089551    3.31201246464752
N         3.75975724285288    3.36568146477372    4.27060954843164
C         7.91786416813437    3.93566461607052    3.67714908592796
H         7.95763115236145    3.23577742875429    4.51013318328493
H         8.44504983711428    4.85715763890870    3.95949197692871
H         8.42825651486277    3.48826396493641    2.82404107647725
C         6.55756746318274    5.18191509888895    2.21127845243573
H         7.06200445202989    4.73532011441900    1.35512707080897
H         7.09973928119456    6.09132308646898    2.50632022796839
H         5.55232286572182    5.45326366037586    1.89914259665109
C         5.81497624905070    4.78181681234581    4.46658937403470
H         6.09721466632156    4.20447509493310    5.35089585070683
H         6.11712366702834    5.82923435621205    4.62854226915994
C         4.29282854472395    4.73631699253489    4.29570728841350
H         4.02457426181104    5.21495965612462    3.35050801904029
H         3.82847525541752    5.30418638281976    5.11530316966083
C         3.64834245669553    2.83244055011740    5.63308329303819
H         4.61629033629757    2.83150380475275    6.12953546511620
H         3.29898059575425    1.80102828737809    5.57676835508519
H         2.93898412091109    3.42844214257647    6.22091737729816
C         2.40382815019896    3.38027392111336    3.70437923758398
H         2.42328035493228    3.78120428066952    2.69168422757087
H         1.73319936011550    3.98681642058862    4.32499330463968
H         2.03571919660637    2.35510390023812    3.65621848561747

