31
CSD_code = ZOJWIG | q = 0 | S = 0 | Stoichiometry = C15H10Br2CuN3 | MND = 5
Cu        0.00878034286971    0.97409245757431    9.26436504340197
Br        1.96050958171430    1.87511728770773    8.61091086100927
Br        0.22407934621795   -0.24414510680300   11.27009063410383
N        -1.85384398904627    0.47482313172258    9.37745656067075
C        -1.13803641120063   -1.33798463376576    8.02905455333521
N        -0.85789977239196    2.88593528916072    9.92716499820840
N        -0.05890743152733   -0.57686386818881    7.75706687367332
C         0.88485015378635   -1.04863820932107    6.98278896963061
H         1.73545495666783   -0.40206563060853    6.81089065938462
C        -1.30395744135459   -2.63859913649018    7.50021165984152
C        -2.11828851285711   -0.78913980701070    8.88904904425096
C        -2.14381156276657    2.62150889790548   10.24979903859069
C        -3.23393651677629   -1.52666804418732    9.21948495542535
H        -3.96830389913628   -1.10896202023060    9.89070654902607
C        -2.91408702808588    3.52379916518093   10.97857458287783
H        -3.93518288310067    3.27939895178980   11.22353664494163
C        -2.45946857002383   -3.36427143183526    7.85558405132067
H        -2.58784986743456   -4.36250968521289    7.46505967488626
C        -3.39380763634938   -2.81430436224243    8.69396900879952
H        -4.27168752982485   -3.37879398267114    8.96846253521945
C        -0.27545224367904   -3.11978665563787    6.66201865149746
H        -0.35794841387465   -4.11060821313110    6.23938479592013
C        -0.31545339014720    4.02369887684215   10.31066221520663
H         0.71536514491389    4.17546584465584   10.01784729191234
C         0.81218151943370   -2.32618803100544    6.40603995639676
H         1.61805977697259   -2.66538683704221    5.77532076087817
C        -2.62195860627857    1.36826313976175    9.75954666748556
C        -1.01318934301738    4.97135856471144   11.04891648330404
H        -0.52816908479803    5.88657743915382   11.34715453024866
C        -2.33137505674689    4.71075620904180   11.39097993639454
H        -2.89986563216155    5.42352040016809   11.96940181215708

