67
CSD_code = ZOLLET | q = 0 | S = 0 | Stoichiometry = C26H37ClP2Pd | MND = 4
Pd        2.40006026428411    2.77974970020259   12.60706163018606
Cl        0.85629291373333    3.15315752952361   14.30806243772322
P         1.15977651116368    1.15201434479207   11.70333977115455
C         4.23337093601024    1.25818910926647   10.77710110469995
H         5.25392323125460    1.13044697161040   10.41357687092106
P         3.68055890820255    4.40794043304024   13.44320191101454
C         5.01397590305821    4.51471112273731   12.22505149183974
C         4.94293396246117    3.50841956383897   11.24526492190642
C         5.83044457996666    3.59636939058185   10.16619677992878
H         5.76040638193604    2.88794104579405    9.35397184742440
C         6.77752258945438    4.59954104547371   10.10390560839594
H         7.45054829225471    4.64645932747903    9.25971623459658
C         6.86500743358029    5.55344317027874   11.10637518917665
H         7.60808458236715    6.33532757007039   11.05118529464356
C         5.97008115893055    5.51722567477386   12.16065456943469
H         6.00728841961041    6.28376742712552   12.92156912233324
C         2.01508693520107    0.02771350529152   10.57286408230231
C         3.40772239157594    0.12733841203270   10.39794546835938
C         4.03517524549119   -0.88277661408638    9.65286347341082
H         5.10859394338607   -0.84325724820504    9.52515094462086
C         3.32640074110422   -1.90756471643982    9.06498375924857
H         3.84571698924390   -2.66913894498774    8.50147741344176
C         1.94433115844138   -1.94208225569531    9.17266179253374
H         1.37479605726908   -2.71771018797960    8.68231851880518
C         1.30353002053709   -0.97787279812209    9.92640114411589
H         0.22718863636736   -1.00416430723885   10.00913558611789
C         2.96600158743138    6.11807923352626   13.44250097223947
H         3.77674206302131    6.85075991821415   13.33887841634028
C         4.44325249727251    4.05228751689257   15.09369658591728
H         3.61695222151110    4.12955251332198   15.81328864478086
C         2.08485664271865    6.13899644857366   12.19098478618364
H         2.67779581620111    5.90954325680699   11.30073071198369
H         1.61401859905474    7.11122887090964   12.05473357507237
H         1.29523763207044    5.38263465846962   12.29745897826477
C         2.15048257758775    6.40268037160474   14.69805543154656
H         1.61305045489404    7.34349576249430   14.58714312056518
H         2.78751675112765    6.47563529394664   15.57743295632989
H         1.42297677731892    5.60786493070322   14.85830820033749
C         5.57576811603944    4.98661740611490   15.49718944933594
H         6.42633340756693    4.86602550767827   14.82879771840376
H         5.90437813900484    4.75382876602942   16.50930566499214
H         5.25635184772220    6.02705315845141   15.47538539248054
C         4.89880679726217    2.59426261383003   15.01849283395256
H         4.07061925651182    1.96335588403026   14.66167607454198
H         5.21490162466743    2.23020992226545   15.99447318379117
H         5.73137182555193    2.49142493241012   14.32054830082332
C        -0.25280940198496    1.82347306523182   10.70718900078808
H        -0.67047570359915    1.04781216048681   10.05426805113326
C         0.52187712384550    0.04792430597453   13.05553276546253
H        -0.06965525098491    0.72260105408973   13.68920805857933
C         0.38887527361865    2.92387627019827    9.85863760062294
H         1.14736676744577    2.50323358224963    9.19600774649413
H         0.87784234407373    3.65656895703219   10.52082864612142
H        -0.35549173486729    3.44080078987310    9.25504186104683
C        -1.33574481840457    2.39319835958316   11.61577113609165
H        -2.05980863030413    2.95919762624640   11.03124257688711
H        -0.89105402295566    3.06037592806650   12.35573669178680
H        -1.86525522823440    1.60312142403163   12.14427361594086
C        -0.33045126429378   -1.15002625373359   12.66212233443728
H        -1.16800204408868   -0.85390189442652   12.03308238955133
H        -0.73342236926866   -1.61371079803731   13.56185200581796
H         0.26316879026239   -1.89575659945862   12.13735811109876
C         1.76910437053630   -0.37642019186801   13.83363216541336
H         2.39802238905585   -1.02980060364529   13.22693552017276
H         1.49730462887936   -0.90222847208553   14.74714552194729
H         2.35313944467343    0.51497938248115   14.10805208774971
C         3.92873651523388    2.44905667021638   11.33836414670354

