31
CSD_code = ZUTKAA | q = 0 | S = 0 | Stoichiometry = C11H15ClN2OPd | MND = 4
C         5.18076489217301    6.75592141857421    6.45249294183694
C         5.12423328832277    7.21901370729367    7.75946372653500
C         4.57828531732513    8.47274177948244    8.00088341695340
C         4.09988129604974    9.21050582253284    6.93355556595070
C         4.18073565580218    8.66945607111851    5.64904340050779
C         3.68623699062490    9.37593004494344    4.47868849313856
C         3.19146133994410    9.42257572088506    2.13093475630484
C         2.75004580133840   10.87989060121255    2.25002135959735
C         4.37124431940333    9.28664977307006    1.15717476339984
C         3.15675039976048    6.16438833560653    1.80756795670644
C         3.82585230895055    5.38088688205574    0.71094239880598
N         3.59409379823091    8.77398505979586    3.35528987443986
N         4.73099287298783    7.46184501435382    5.42687530522242
O         1.99086456474700    6.46974511058654    1.81282195438549
Cl        4.82981797632706    4.63759168063785    3.66659075249790
Pd        4.14637077390639    6.74127492937754    3.37545816037302
H         5.60610120609767    5.78786081400108    6.21150584266890
H         5.50337092076217    6.61334772572059    8.56678494346177
H         4.52411227910114    8.86553944024811    9.00537891974418
H         3.65918872920556   10.18483972582483    7.08196255255986
H         3.41042337466645   10.42058670825631    4.61944424602543
H         2.35160438085129    8.82747016319047    1.74509645827269
H         3.56456821016594   11.51385013821870    2.59612223221095
H         1.90336960896280   10.97855642765478    2.92603892149728
H         2.44128779510358   11.23180420919400    1.26958093940965
H         4.78438468046757    8.27051742296693    1.22020863061971
H         4.04863553736608    9.47681347582163    0.13794819486329
H         5.15489160492902    9.99530203419753    1.41974752713767
H         4.86159665059037    5.69818786455523    0.57279417789353
H         3.26055204089201    5.46453207747859   -0.21757260459859
H         3.84338138494900    4.33738982114162    1.03125419157793

