87
CSD_code = ABAKOE | q = 0 | S = 0 | Stoichiometry = C33H48ClN3OW | MND = 5
W         6.31830656784185    6.83399700130667    4.21217741304910
Cl        5.79847337097133    4.50476500698560    4.54182872513008
N         7.30066442452801    8.50498422604585    3.82804302521069
O         4.73573596721171    7.30675414416621    3.88079204098310
N         7.10584581632538    6.09483472693940    2.50678507342882
N         6.41876649801453    7.04016939891584    6.14901752232274
C         7.97936644855054    9.27847552283899    4.79867647933584
C         9.37029596546188    9.25094962437580    4.88511522191881
H         9.92739290231862    8.63024900541053    4.19862576078854
C        10.04486015614292   10.00434650663186    5.83764483527044
C         9.31526559987481   10.80390706441429    6.70459741199026
H         9.82955725585786   11.39740946209656    7.44811267335870
C         7.92592955074192   10.85648460726346    6.63697421767355
C         7.26864990866074   10.09622004294368    5.68308846672449
H         6.18870245043070   10.11434872289480    5.61897720241431
C         6.97382286357857    9.23372419883291    2.59531355485898
H         6.77094457856793    8.46478262494134    1.83026250364163
C         8.12633539999885   10.10782741384696    2.08914850386797
H         9.02509359404717    9.50812192772245    1.96430913594610
H         8.33678031100585   10.91103594758279    2.79176491362518
H         7.85989619444190   10.54383732295176    1.12927564828033
C         5.69066144070182   10.06062246208287    2.77079802667158
H         4.93650407779518    9.41834909511404    3.23875274014527
H         5.32045862568487   10.40359464394336    1.80745649900507
H         5.87635869738859   10.92716735981498    3.40117269789812
C         8.47081721429301    6.15022254341016    2.62008188654676
C         9.37085188554872    6.45331855022244    1.58119281874621
H         9.00085788815715    6.61904103133192    0.58056839340942
C        10.72560542539577    6.57293716334109    1.82386764083957
C        11.21982056114392    6.36683303513467    3.10978762397937
H        12.28169992389319    6.45335306117351    3.28834472946522
C        10.37171433944456    6.01961081520122    4.15186766969849
C         9.00727621541502    5.91755879408860    3.90853603589950
H         8.35422594277921    5.50347134421811    4.69559366489495
C         6.51783323849482    5.71467685730522    1.22555087949821
H         6.88295240099510    6.36858526481655    0.41307117321823
C         4.99912719809402    5.86338357691288    1.31938015650646
H         4.53482714389164    5.61066505859336    0.36815459736841
H         4.73036212897253    6.88952897057405    1.58619245372640
H         4.60893986519695    5.19212239301357    2.08887105033151
C         6.88914277204957    4.26049784146748    0.90232787631456
H         7.96746824627288    4.15766237277929    0.79880010442902
H         6.41326151568591    3.94159531264536   -0.02163223587397
H         6.55703286130076    3.61772644829474    1.71592236832978
C         7.39510481129712    6.48035836788323    7.01692220090165
C         7.38998590324449    5.11730727361737    7.32307869552573
H         6.63992195412584    4.47170962547838    6.88698724129867
C         8.34648635860758    4.57255382194337    8.16946655988346
C         9.30691683224623    5.40133173470375    8.73189046392187
H        10.05015697119718    4.98312276123870    9.39623258835534
C         9.32830846228597    6.76129154495315    8.45131736439162
C         8.37405913829641    7.29036235499007    7.59653251778880
H         8.38549338417320    8.34445836046189    7.37049417621286
C         5.19746489459683    7.51318480624622    6.83158782545772
H         4.78886871914365    8.33179435406708    6.21240813611186
C         5.44431641743798    8.05312543800526    8.24310385486794
H         4.51650150598539    8.46092886524560    8.63727008549015
H         6.19224500554055    8.84106957990561    8.22924141688719
H         5.78505064852937    7.25989725564970    8.90488782816702
C         4.14745373595878    6.39058507696497    6.86985353117115
H         3.92713051875075    6.07027049015588    5.84608992342470
H         3.22923332865861    6.75106092792303    7.32854321249758
H         4.51670022370690    5.54242166865311    7.44350405433636
C        11.54291689370476    9.96181860775681    5.90011777672391
H        11.90261281060069    8.94117321965943    5.78755959907084
H        11.90874969753029   10.36628737383529    6.84111123387853
H        11.96553247819965   10.55439781296750    5.08853304620788
C         7.16398368527492   11.72808681406467    7.59155748526484
H         6.09207975104117   11.61795778137956    7.44915809267401
H         7.42874183739758   12.77427493451627    7.44124815160417
H         7.40822212391907   11.47055633077607    8.62173064606501
C        11.67406917076816    6.91993141912419    0.71483275300786
H        11.14443189299894    7.06706976835565   -0.22281751010175
H        12.40381327577744    6.12252689388321    0.58031407422619
H        12.21998402439955    7.83186516532469    0.95376828194230
C        10.91118682458368    5.75928756382549    5.52526586557553
H        11.98434374928738    5.58636598270202    5.49468281719953
H        10.42563538890944    4.89514108879020    5.97394322930106
H        10.71429619762256    6.61494386687375    6.17083723034065
C         8.31865255897973    3.10760973353576    8.48727288034924
H         7.84184324120653    2.54982448172723    7.68526958150475
H         7.75186777075494    2.93558921563234    9.40281883392630
H         9.32522422501828    2.72414474287490    8.64022238309715
C        10.36066062485887    7.65218653938763    9.07633266688434
H        11.33622897194715    7.17084431043506    9.07892693331450
H        10.09158333588934    7.86745883009513   10.11052578782670
H        10.42925522238309    8.59477471980444    8.53898730255297

