71
CSD_code = AGEWOY | q = 0 | S = 0 | Stoichiometry = C24H43ClP2Pd | MND = 4
Pd        6.98285665068728    2.68686009720570    1.46339806068507
Cl        8.67362374459459    4.30919035831771    1.44219949668772
P         6.88952542897827    2.47044546947451    3.69102727891468
P         6.73081847726185    2.57321320322472   -0.75933568642965
C         5.95560925075515    0.89651390721164    3.92661551462882
C         5.18647804782798    0.61950924325306    2.66143774440449
C         5.52544950801673    1.29161192254133    1.48294519008258
C         4.82006615557405    0.96900021592447    0.31954134585461
C         5.11578267647785    1.70381849442342   -0.96180514899700
C         4.17531087260877   -0.33307833714320    2.67266847553453
C         3.49113530938900   -0.64332103018383    1.51263298431584
C         3.81791907430878    0.00688978020934    0.33778751068236
C         5.77230889903228    3.79898308445484    4.41720749324884
C         5.49048714470971    3.66098474557272    5.90914607847235
C         4.47822718180438    3.67849258789929    3.60220620862206
C         6.38534200134685    5.16505499849041    4.10254412463205
C         8.49347823699775    2.17363182442019    4.62597681823695
C         9.29286658956060    1.32139568909827    3.62983582659658
C         9.23070118503770    3.49254065220077    4.84854109008046
C         8.32667958560238    1.43709828843993    5.95427520953827
C         8.00120448701922    1.39250355849832   -1.48891752297578
C         7.83442944694456    0.11273778097689   -0.65959937222907
C         7.83395500595321    1.10293395484460   -2.97638583886911
C         9.39584032276746    1.94917331063954   -1.19534896178698
C         6.48874447575701    4.17658962817772   -1.71053940832725
C         5.68494653779060    5.02326742374025   -0.71321630690329
C         7.83445754768136    4.85427676917760   -1.96009469315268
C         5.72737202631575    4.02491596105852   -3.02662200561530
H         5.30637952931235    0.92036889766900    4.80654027650219
H         6.67910040410456    0.08748433646572    4.07341251610459
H         5.10292783031743    1.03875246780651   -1.83008782592581
H         4.33634335303331    2.45795069486162   -1.11386007485624
H         3.92728994046760   -0.83792647739461    3.59707212839351
H         2.70808611984098   -1.38722971799760    1.52417793978097
H         3.28713479514198   -0.22871457870120   -0.57527202199672
H         4.74475680296920    4.39700768922046    6.20845112084791
H         6.38959913006021    3.84107684272269    6.49422017235202
H         5.10375768587033    2.67389858911175    6.15614620653396
H         3.79891784735770    4.49156272090903    3.85626316738954
H         3.96492822314756    2.73609462276757    3.78567222283128
H         4.71107322040397    3.74639912698400    2.52800043541847
H         5.64352811861262    5.95002441488922    4.24688634103129
H         6.71813700346787    5.19367347927026    3.06097548205659
H         7.23733793233676    5.38595608027802    4.73828050254397
H        10.28786172445725    1.10938770690212    4.01824461550457
H         9.40356069516610    1.86549964846228    2.68369673166791
H         8.79672192104479    0.36994856356722    3.42724637270156
H        10.26130864944744    3.29450863337108    5.14152452849299
H         8.76456235866863    4.07599001408608    5.63964006801055
H         9.24649979638159    4.07770716075016    3.92995977883558
H         9.30415522300895    1.32202237913889    6.42200494564100
H         7.90439646358479    0.44385881981630    5.82163761954825
H         7.69084917578257    1.99259776748651    6.63876816636203
H         8.61466864056228   -0.60335813580932   -0.91560928316095
H         6.86893256436335   -0.36137628039890   -0.82755309986445
H         7.92440538779901    0.35288474150420    0.41132381404088
H         8.53254785612754    0.32222348126448   -3.27622869927650
H         8.04749895548341    1.98752529771521   -3.57228534544092
H         6.82782626631089    0.75851285775045   -3.20884706010999
H        10.14645383919183    1.17251581726402   -1.33912000724475
H         9.45003288290520    2.29190253087064   -0.15792343957183
H         9.64648114271104    2.78382669869437   -1.84303807068847
H         5.50440409294143    6.01964203494977   -1.11372106152972
H         6.24902591868855    5.12710459619767    0.22181691255439
H         4.71886505089914    4.56707026756524   -0.48707291402657
H         7.67619498980440    5.88863409719444   -2.26385727893611
H         8.38684117750246    4.35385508710797   -2.75255211390713
H         8.43227084753212    4.85670127395815   -1.04954630759813
H         5.65164263059536    4.99972677569387   -3.50772569989175
H         4.71736680264294    3.65171831063582   -2.87478961264981
H         6.24321113915301    3.35375708325993   -3.70839365441116

