31
CSD_code = AGIWUJ | q = 0 | S = 0 | Stoichiometry = C11H17ClOPd | MND = 6
Pd        3.47259938162618    0.94488832789766   17.61293079240181
Cl        5.45039022407341    1.83091028912411   18.24211796067060
O         4.28732835098961   -0.57081669556823   15.45717762375026
C         4.36581543153516   -0.91778996318630   17.79253520641354
H         5.08628407945686   -1.05660715835706   18.60016611218653
H         3.58835615437206   -1.68836322706843   17.79296586069790
C         4.97991055996613   -0.72758116558009   16.46298487032780
C         6.48680808860009   -0.74143649014752   16.38055599755817
H         6.85412251990966   -1.71140101466306   16.71088790222922
H         6.89779728188124    0.02155389869706   17.03898487396307
H         6.80636308414682   -0.55487719289208   15.35842893008804
C         1.58395711751699    0.18580784225205   16.72201872010957
H         1.83969804653299   -0.79260412492106   16.32207857165441
C         1.44396376650717    0.31058119661965   18.07941505677685
H         1.53763906374046   -0.59024702006659   18.69170398397093
C         0.79642262616615    1.46136175606755   18.81842600902312
H         1.18085715842679    1.45196517238330   19.84481710647831
H        -0.28284754895439    1.28078711715735   18.87779696335165
C         1.05280369170259    2.85848512406563   18.21600919056020
H         0.35901829916243    3.06293675961807   17.40078580724617
H         0.85956728801021    3.60005875032675   18.99455235662536
C         2.47264420917714    3.02858048331445   17.73072694714812
H         3.13055502347498    3.58146363073247   18.40287417340730
C         2.91025758103571    2.79128151401936   16.46492959839668
H         3.88658988707058    3.19313301054508   16.17703743748365
C         2.11473123816086    2.22990319189496   15.31075808331177
H         2.82702284609570    1.76841434220671   14.61779786624514
H         1.62526087780813    3.05286509184739   14.77833709029803
C         1.06801229238312    1.16377049731102   15.69415150087670
H         0.14845722547921    1.62721597351810   16.05270512972270
H         0.81741415393890    0.60906008284992   14.78794227703145

