73
CSD_code = AHADIW | q = 0 | S = 0 | Stoichiometry = C31H32Cl3NO3P2Ru | MND = 6
Ru        2.73302378686988    5.53482381055250   17.44957304076864
P         2.05570795425266    7.40797054577320   16.08915598842328
P         1.85999693553745    3.91669455117333   15.93786460790259
Cl        0.60836329150756    5.28607938682840   18.53705452765896
Cl        3.31862887224025    7.33603294576179   18.85557384011660
Cl        4.86433306823739    5.72358608680732   16.39174307575593
O         3.88024027079804    3.62639046788720   19.17234909974911
O        -1.89059967709276    4.71103039548375   14.56423912179209
O        -1.51937895034824    6.93100744673253   14.79982128033217
N         3.38790713788766    4.39474015883307   18.47960809942237
C         0.04172305695892    3.79955425399612   15.68702806505113
H        -0.17514950421793    2.80983243707568   15.27201104791937
H        -0.44991554486428    3.89936288295320   16.65851969398287
C        -0.49842204889321    4.86016987399052   14.73222117920906
H        -0.02006031491626    4.74599664854357   13.74392985572811
C        -0.33245125193369    6.30882227906779   15.24074518035522
H        -0.31330106261158    6.30117897159172   16.34552814672075
C         0.88916314872374    7.04297489362552   14.69663444307814
H         0.55959699762503    7.98629101544174   14.25168578736452
H         1.38085852791549    6.43940364849564   13.92982987869495
C        -2.53495044948086    5.95354094076358   14.85833352062463
C        -3.57096432562532    6.25188084203574   13.77940588342393
H        -4.03587334240343    7.21115632463491   13.98189164875633
H        -4.32181166547036    5.46871041990537   13.77391212524499
H        -3.08220831076907    6.28799323041058   12.81005837191784
C        -3.17936436767941    5.88769567417632   16.24783246495868
H        -3.91672132599853    5.09089843459981   16.26230293735835
H        -3.65948697681960    6.83653818434963   16.46770834067569
H        -2.43013126646185    5.68805443600360   17.00963221365715
C         1.15736126124133    8.80080543424518   16.84661553976986
C         1.13070878580850   10.01199839264275   16.15747727726292
H         1.67093449972005   10.11700779914615   15.22593928211255
C         0.42663592221393   11.08404494348865   16.66940769471140
H         0.41586300871926   12.02240382027662   16.13424940397639
C        -0.26106803948675   10.95694723517818   17.86614044965042
H        -0.80824469086594   11.79823932739444   18.26531050458506
C        -0.24171682646775    9.75359578041168   18.54823642798138
H        -0.77525271393627    9.64980915484660   19.48114778751484
C         0.46530514078058    8.67556970187168   18.04361598431158
H         0.48328102792815    7.74596896465056   18.59197538516296
C         3.43255524001109    8.27547446251351   15.27289967133832
C         4.29993579612828    9.00306991984800   16.08626849333784
H         4.12864602629971    9.03351751511087   17.15310355457222
C         5.37954008426133    9.66549309529950   15.53556020360855
H         6.05025175510842   10.21896871345916   16.17538860089320
C         5.60496475860695    9.61368675296746   14.16958078782564
H         6.45294189305055   10.12579151365222   13.73964664643133
C         4.74068478795626    8.90141505058783   13.35697006578609
H         4.90925794281345    8.86172584401868   12.29042152358868
C         3.65801635904457    8.23189017902715   13.90097972211085
H         2.99747873081749    7.68439973491952   13.24554110430832
C         2.28835322767781    2.32639501868361   16.69614429106997
C         1.39702285645322    1.57282436458218   17.45155248481926
H         0.37269919063265    1.89299637969076   17.57060276583053
C         1.83716975981902    0.41471031884458   18.07057622330938
H         1.14646245322300   -0.17015282106363   18.65940147637910
C         3.15625211298852    0.01250132534900   17.94691240458216
H         3.49262806609455   -0.88850673157217   18.43715408451583
C         4.05036371854299    0.77271416711434   17.20787429411932
H         5.08271065078586    0.46866256143414   17.12479229985837
C         3.62235959738855    1.93039942225245   16.58820538581903
H         4.31384511991791    2.54892973032434   16.02757039782457
C         2.50275990681447    3.71140659092840   14.24907909623700
C         3.32370995146129    4.66824794946190   13.66652360815424
H         3.64087612257649    5.52570204117116   14.24449180595828
C         3.77438128446405    4.49403607819008   12.36881265238532
H         4.41796711328759    5.23810900861363   11.92399380168398
C         3.40900774505495    3.36759297267532   11.65207258616089
H         3.75979772205644    3.23245797706567   10.63988033543221
C         2.60291470532034    2.40283274378276   12.23814610431026
H         2.32994648623803    1.51696855827018   11.68421376292954
C         2.15118564362994    2.56850154502603   13.53311569810516
H         1.53715315282238    1.80803627606990   13.99561486304579

