66
CSD_code = AHAXAI | q = 0 | S = 0 | Stoichiometry = C29H32Cl2NPPt | MND = 4
Pt        1.38119560099620   12.68702998401355    1.42809606910379
Cl       -0.52596853310739   13.70532370530832    2.09132392082196
Cl        1.16833757340287   13.67762408944634   -0.63236929905048
P         1.40090179663657   11.49849271833866    3.35204563742290
N         3.14201011436611   11.88550573708006    0.93454968986322
C         2.49232894377676   12.08454376504430    4.67728658348597
C         3.49350456637617   11.31682700148186    5.25929749755836
H         3.64103019910071   10.29192134870993    4.94769709491235
C         4.30032142880686   11.87364892507309    6.23718596810147
H         5.08227386180014   11.28030388322044    6.68816215942291
C         4.10748020147899   13.18555597804486    6.63770375975875
H         4.73993533055842   13.61241414562709    7.40224716416428
C         3.11169387957157   13.95502993985915    6.05341877731779
H         2.96802217074695   14.97974073962065    6.36175262375582
C         2.31137488988064   13.41047969123060    5.06821887831665
H         1.53991288368238   13.99691370889960    4.58398295900281
C        -0.19207702050556   11.19100017935924    4.15518276853634
C        -1.22386249542689   10.75936950170657    3.32404681745391
H        -1.03138790772460   10.63890531180280    2.26481997388535
C        -2.47688542049472   10.51573881898472    3.84908872589628
H        -3.27886250752563   10.18941299004772    3.20409927023768
C        -2.70719431465788   10.70661274584019    5.20354350583837
H        -3.68938249180517   10.52442429778510    5.61374286551092
C        -1.68412043205112   11.13945564793407    6.02970939456397
H        -1.86755051739626   11.29258268184241    7.08316806846045
C        -0.42378937726552   11.38447614669026    5.51081999765291
H         0.37347162546532   11.72765673535965    6.15547980701305
C         1.99668925549427    9.83046917837107    2.94785802651667
C         2.95810438036043    9.63994909527125    1.93765377339000
C         3.40893551443576    8.33716589319181    1.68877686777986
H         4.15450034156804    8.18067059555758    0.92220309016809
C         2.90683543417480    7.25646082264388    2.38302005175159
H         3.25963105589317    6.26109905172964    2.15951474744612
C         1.95457585139275    7.45275961092446    3.37265334747922
H         1.56264334460653    6.61304807624544    3.92608477184304
C         1.51423803856263    8.73297491042382    3.65343546900490
H         0.78275139540326    8.89139148520242    4.43357495990787
C         3.58327912818561   10.70632064950099    1.18169856204285
H         4.56486857426446   10.43728838378986    0.78308367888158
C         4.01424357213530   12.81383630446253    0.26757042740555
H         3.48664130777194   13.17323889283205   -0.62560315543438
H         4.95356894165817   12.33019574865041   -0.01679901182615
C         4.27006270127776   14.03121899316949    1.17595018711488
H         3.26976860648383   14.40060449556847    1.46862520801410
C         4.98527699677429   13.67175099914784    2.47617728314880
H         4.51116347859720   12.81949421299029    2.96877774652453
C         6.53086909070433   13.65185132222837    2.38259686662734
C         6.43443569679510   15.18623639802000    2.52985622576493
H         7.24740143694960   15.69461008182195    3.05063595945105
C         6.12575334241524   15.86247320983576    1.19820948414219
H         7.03170352640257   15.90972066090050    0.59148302129456
H         5.82759123157342   16.89144194053827    1.41003736108717
C         5.00421885570188   15.15079333464225    0.40673486825252
H         5.42228477997166   14.73109896248739   -0.50920216743764
H         4.26809854031063   15.88718373277726    0.08563405238304
C         5.10818863501991   14.98080484129416    3.27339820912940
H         4.33508599032573   15.72451373427507    3.09528763439904
H         5.21941869645468   14.83552648755276    4.34395254058067
C         7.13794323079714   12.98886553802367    3.62081716716546
H         8.20066885031796   13.21530107232588    3.68302288498136
H         7.02226018894075   11.90787148242064    3.55708013208313
H         6.66441896644461   13.32091964494558    4.53925384155328
C         7.25213651868300   13.07747691297323    1.16996296066483
H         8.31711610367945   13.28874036250460    1.25860070495605
H         6.90894380766806   13.49256518512479    0.23128685542157
H         7.12977054313370   11.99537727728781    1.14029468734301

