65
CSD_code = AHOBOQ | q = 0 | S = 0 | Stoichiometry = C30H20Cl2F10P2Pt | MND = 4
C        -0.16431789045023    6.30412940809977    3.49286841450630
C        -1.19901175534977    5.69914951347304    2.90694661391671
C        -1.75987844743106    6.08525644594014    1.56564094503955
C         2.01526797842798    7.97802886610383    4.08839864067571
C         1.63204665310112    8.41772354340101    5.35528489886533
H         0.57964115822092    8.57914255795388    5.56874527765556
C         2.59173821641571    8.64482588127182    6.32164309433276
H         2.29894182759797    8.98327930660502    7.30404266290041
C         3.93154574165087    8.45071731583093    6.02168893310075
H         4.68327023869370    8.63802969892454    6.77369199167908
C         4.31128824080840    8.03122134712981    4.75781268174755
H         5.35677820248512    7.89406331927098    4.52506276725451
C         3.35695432559812    7.79631241518346    3.78278902747540
H         3.65277329357376    7.48905026370464    2.78988189591401
C         1.37997250147280    7.22512755672348    1.33689867122094
C         1.29805546767110    7.99085514811147    0.18114347550684
H         0.81644686462223    8.95746657441276    0.21825063589096
C         1.84092970762099    7.51090589314872   -0.99768840648144
H         1.77828867928473    8.10389958851277   -1.89744207157743
C         2.45967616400763    6.27229952811220   -1.02360179781864
H         2.87884735298390    5.89771740935594   -1.94530119473601
C         2.54177554010339    5.50759149093005    0.13026106791740
H         3.02379601478702    4.54179523595767    0.10748921669727
C         2.00282946807405    5.97830898827579    1.31221041539141
H         2.06274869369146    5.38472284610343    2.21542754511672
C        -0.44910489612863   13.15485655854466    3.38313232794463
C         0.59191509804175   13.29788301475833    4.20604759458737
C         0.97010192877264   12.36321000272748    5.32424843638839
C        -2.84561096362166   12.12709891592950    4.54325324743369
C        -2.62144087003462   12.97793411572329    5.61947464689167
H        -1.67374882867215   13.48318480245957    5.73772578629877
C        -3.62626701805406   13.18568152619742    6.54862418632669
H        -3.45076536764666   13.84951904703710    7.38180036137114
C        -4.84581683409135   12.54345200456587    6.41515523245959
H        -5.62253706816959   12.70614042055579    7.14706929136669
C        -5.06833784873948   11.69023446504539    5.34560649540695
H        -6.01594042988955   11.18387819751108    5.24269605317498
C        -4.07363291540909   11.48096680055702    4.41031123451812
H        -4.23361131553154   10.80880609853364    3.57882944452448
C        -2.47185206670623   12.08713210522563    1.72461130199374
C        -2.30523585645776   11.17993013188848    0.68240224634876
H        -1.67567703008265   10.30446676078668    0.83421359780524
C        -2.94684019851721   11.39257171760584   -0.52414570343675
H        -2.81995933259052   10.68983442815463   -1.33356306207544
C        -3.75271713719472   12.50740861724187   -0.68900168174318
H        -4.25199184709146   12.67623434160357   -1.63139938487492
C        -3.92675030608724   13.40644756546198    0.35256878062693
H        -4.56006539349932   14.27072398722664    0.21994691306413
C        -3.29354110216748   13.19934838984969    1.56341436946145
H        -3.43228735792746   13.89409963876745    2.38010223503204
Pt       -0.56213222625640    9.71822093392111    3.09274301024762
Cl       -2.39601845406069    8.64907021439680    4.01749974774698
Cl        1.37471922214555   10.72657356625232    2.24754235180240
F         0.27648803115363    5.83670374472501    4.66531235423811
F        -1.79220460140437    4.61249698716807    3.42394997135566
F        -1.17972076960347    5.38206536864842    0.56911785832716
F        -3.06436589993191    5.86511303354656    1.47585231460864
F        -1.54504173014784    7.37354602575062    1.26175964157080
F        -0.66540091938908   14.11145419798830    2.47420008488497
F         1.40026157621459   14.36886679800040    4.15246576957299
F         0.93841527691807   12.99778899547826    6.50916576185126
F         2.19133547535153   11.85471407607390    5.20134238897400
F         0.11370068896258   11.33556514579176    5.43685852403653
P         0.67094091978712    7.83104338935700    2.88819056021984
P        -1.61036586986922   11.72881372664498    3.27543030748041

