90
CSD_code = AJIQAL | q = 0 | S = 0 | Stoichiometry = C42H42BrCuNP3 | MND = 4
C         4.79042458646784    4.70379808439873    5.51693126131909
H         5.52051403945703    4.79819017659382    6.32396680387288
H         4.21801368171973    5.64802957867893    5.47420309198266
C         5.54627170060113    4.48445942552502    4.21210907411830
H         6.23656026006371    5.31150874505033    4.02691549499688
H         4.85405944346593    4.41966208257779    3.36625369847027
C         2.66381354831312    3.66730971845629    5.07949563225434
H         2.87722576517489    4.09785360679276    4.09849981218700
H         1.94994676591954    4.33919990153346    5.58944085459481
C         2.03988170990656    2.29259335835120    4.87246745143251
H         1.13117375170088    2.37222938964582    4.27019524802955
H         1.77643551310108    1.83535840981890    5.83181205474948
C         3.67295689512086    3.47156773186390    7.25505361965605
H         2.76665867133171    2.88076559388977    7.40610373220761
H         3.49889491304520    4.46753050407207    7.70089885442072
C         4.82525135064270    2.76931420113459    7.96288984058093
H         4.60547023962197    2.64963250109087    9.02693779174724
H         5.75082778253838    3.34619025627660    7.86688585160848
C         7.47321228310146    2.92317446060101    2.79279252431438
C         8.40183762451379    1.89154507457679    2.66015540283437
H         8.48972126153034    1.14535918841868    3.43767305767945
C         9.19658058497199    1.80540908003759    1.53434295949688
H         9.90821156397078    0.99897827264220    1.44192004945724
C         9.06828472559900    2.74453348427114    0.52333392682071
H         9.68692341436219    2.67955978414273   -0.35972095413031
C         8.13550809196541    3.76069655255997    0.64172048806555
H         8.02447132159983    4.48824937032571   -0.15002389163318
C         7.33341178399770    3.85005446858914    1.76589961060080
H         6.59947202564862    4.63988048528408    1.82651766856503
C         7.71368056561664    3.12827753444978    5.55292255693608
C         8.23290602083667    1.98477697720563    6.15593228863945
H         7.87171159676728    1.00816045150674    5.85885532701973
C         9.21425624355866    2.07930313790574    7.12527089390496
H         9.60838055716049    1.18160912952145    7.57747595514181
C         9.67685080581235    3.32380498333905    7.51677807187092
H        10.43451752419719    3.40570684716105    8.28212636400860
C         9.17041151738286    4.46682984053935    6.91909370956715
H         9.53760358448694    5.43935809665580    7.21580730334306
C         8.20071599331969    4.37378105662500    5.93700085355186
H         7.83467889353211    5.27778289094031    5.47151657857066
C         3.49622843234716    1.86987901426781    2.41594533619586
C         4.67804108225131    1.54129185204358    1.75553197765996
H         5.40336513236025    0.89814325255649    2.23803725188326
C         4.93410912303416    2.01848367163513    0.48340395715078
H         5.85350478874627    1.74922638307624   -0.01450571044110
C         4.01552634443884    2.84640985473474   -0.13849631250204
H         4.21466594922299    3.23294708824711   -1.12715234298752
C         2.83407944651329    3.17356298314866    0.50757509067590
H         2.11020087481110    3.81100583066805    0.01936848117219
C         2.56844334392094    2.68396026332711    1.77373409604037
H         1.63205763234879    2.93689180468972    2.25025453345882
C         2.27516262343053   -0.28844883927942    3.66916235205964
C         2.90602195541938   -1.25769589914301    2.89020006856660
H         3.91699607906766   -1.09324966381145    2.54387414452480
C         2.25567903921261   -2.43394539464187    2.57400276399937
H         2.75708767972264   -3.17830123909697    1.97415394339057
C         0.96975480241932   -2.66011896548791    3.03855272264560
H         0.45849420405219   -3.57993179803571    2.79509181694699
C         0.34521129922648   -1.70889616285200    3.82709755273086
H        -0.65324073048818   -1.88689619229897    4.20113885189207
C         0.99326238237892   -0.52968990828088    4.15055521367231
H         0.49336759302676    0.18830949674511    4.78365696449265
C         6.32027085228133    0.35627752163970    8.28830232210413
C         7.00819219317789    1.02424959359182    9.29525478707381
H         6.83264882018777    2.07253144849794    9.48655931355342
C         7.94002514700665    0.34618045299724   10.06139001999902
H         8.46695861441610    0.87118050500537   10.84577061422860
C         8.20520476462243   -0.99163170295201    9.82337363131333
H         8.93737170636510   -1.51210060787169   10.42316402494741
C         7.53818316381861   -1.65630859609897    8.80657099235967
H         7.75234940739242   -2.69441096830165    8.60212405247172
C         6.60479121188758   -0.98614849495123    8.04099434378637
H         6.10141144596109   -1.50171416324725    7.23487256060473
C         3.65022972298148    0.16717386258975    7.53997147059681
C         2.79721299224926    0.42425312425560    8.60881495498932
H         2.99719022045900    1.23729808423963    9.29206440752588
C         1.68268535059184   -0.36913405801543    8.81330458221114
H         1.02184649972028   -0.15735181414267    9.64221655811005
C         1.41400021447119   -1.43436235696918    7.96858079636599
H         0.54132800104903   -2.04843720266741    8.13548176384191
C         2.26991985598060   -1.71205534964441    6.91676134595239
H         2.07580984481684   -2.54519636931750    6.25810160593161
C         3.37534334938690   -0.91022053659960    6.70057494827478
H         4.03766927568427   -1.13039679310770    5.87269912049372
N         3.91703084671555    3.57545893739157    5.82051721170327
P         6.42483808649677    2.85633787687950    4.28378373817617
P         3.28724860402343    1.16863492526332    4.09228682612355
P         5.14422234464354    1.14280946789504    7.13775001265189
Cu        5.44457542513223    0.84268898575015    4.86307373243582
Br        6.52519435889348   -1.09926763737150    4.19250659609167

