94
CSD_code = ALANUX | q = 0 | S = 0 | Stoichiometry = C45H45ClN2Pt | MND = 4
Pt       14.14647941484279    8.37620370858369    5.68681436604012
Cl       15.11116581649791   10.13242153400149    4.73278922999116
N        13.40362658425765    6.82912697583124    6.51824708519910
N        15.93947344017233    7.27550623225714    6.08747523301413
C        12.22880243669048    8.92063572906714    5.57448100398077
C        11.65313389947586   10.06868835134859    5.04485129822299
H        12.27407770469682   10.83473223525885    4.60377599954377
C        10.27572727153001   10.22703448624393    5.08657538180867
C         9.43674134255945   11.31306451922370    4.61170155786251
C         9.76634577285751   12.49724520324743    3.97307066516121
H        10.79586427817020   12.73618937974824    3.75377129912069
C         8.74596680945056   13.36678685072203    3.62310341204776
H         8.98129695565141   14.29488970475563    3.12263143975736
C         7.42410478872590   13.06192129324799    3.91057202914487
H         6.64417578234117   13.75616100262967    3.63281855645516
C         7.09014895645017   11.87588832941901    4.55111644763086
H         6.05651987914051   11.64931176248525    4.76994615953271
C         8.09749238335340   10.99901897279879    4.89256123108368
C         9.44771305185182    9.24803203609195    5.66062952488081
C         9.99055767018359    8.10223823062482    6.18936022579943
H         9.35716814916757    7.34586824341141    6.63008617056125
C        11.37810625691558    7.93240264739149    6.14596955662333
C        12.06223460380651    6.75805818082087    6.66512101360309
C        11.49459342329212    5.63677773505437    7.25640320580463
H        10.42713227993373    5.57917711971282    7.39241008896270
C        12.30714283389896    4.59258475469528    7.69763500090283
C        11.72406809120407    3.39532831580333    8.31524697778278
C        10.55012473674205    2.84016464018150    7.80952974128876
H        10.07877181133299    3.28542827757000    6.94558900251468
C        10.00467687068098    1.70810863213486    8.38484610192813
H         9.09868770295822    1.28337190437024    7.97821638806044
C        10.61725433074476    1.11745763111572    9.47772648681418
H        10.18884187783665    0.23447646710089    9.92775162742806
C        11.78136967870340    1.66443875151723    9.99136241744574
H        12.25987861483166    1.21112081824437   10.84712438900870
C        12.33362239631307    2.79206992183621    9.41343971638520
H        13.23061737054151    3.22555009083398    9.83173027432463
C        13.68849759066047    4.70758475714065    7.53430859304402
H        14.33130270078490    3.90314332165530    7.85129825201195
C        14.21721824161772    5.84448355966560    6.93560864188301
C        15.64578650799235    6.08712714846701    6.70143010090217
C        16.64840645379522    5.21501212550671    7.06010288522854
H        16.41973256281667    4.27787885710665    7.54282909506980
C        17.99512572816786    5.53393873318618    6.80232112378726
C        19.06850466907951    4.68744700924125    7.14794489923376
H        18.85654892488022    3.74576955043727    7.63296751834658
C        20.35448761979991    5.06041576804410    6.87076905983693
H        21.17561602419168    4.41157605128063    7.13712886344196
C        20.62797835474081    6.28610811760340    6.23903110346937
H        21.65288981078486    6.55475694482768    6.03217648012294
C        19.60985911621660    7.12938792748202    5.89008892139620
H        19.80667271475874    8.07329302300128    5.40443347583814
C        18.27464214253146    6.77257033218858    6.16427630691454
C        17.18021524375350    7.59603374399046    5.83420005940518
H        17.33879258666110    8.55063921302451    5.34582005321153
C         7.99759140585794    9.66639313215160    5.59505379650858
C         7.41458172755847    9.84680937335627    7.01145696733362
H         6.37503136023887   10.17138301348036    6.92391269773450
H         7.41943479757405    8.87897547090620    7.51879366027419
C         8.18891955868937   10.85583970661152    7.85584728789149
H         8.17321401476605   11.83077629004730    7.36395946085856
H         9.23225600759024   10.54119430318143    7.93065343277047
C         7.59531778305306   10.98687273670381    9.25634574341621
H         6.54988124738623   11.28925327442480    9.17202846156929
H         7.62242263947520   10.01367071190033    9.75372168701139
C         8.36095675446935   12.00394028437501   10.09940276822655
H         8.28033205550700   12.98990622443259    9.63584982467438
H         9.41835561636769   11.72776254532022   10.10179681403237
C         7.87171791047053   12.08410635571426   11.54597559723609
H         7.89911767719681   11.08661520129903   11.99164317327700
H         8.56121372431926   12.71622729213845   12.11097037924939
C         6.46496553046325   12.65780098580789   11.67378116061189
H         6.19614590496270   12.76939700273179   12.72200831459799
H         5.73292489241785   12.00524870008457   11.20516080656718
H         6.40885391138428   13.63555457049511   11.19955948269765
C         7.13237474730007    8.64385467048428    4.83257401355871
H         7.01869082490478    7.76599176946259    5.47409939023075
H         6.13835897396833    9.07049780494766    4.68068250387202
C         7.69324532730747    8.18121434678551    3.48585408976653
H         8.74709249729040    7.91985331439277    3.60028303634203
H         7.15853040328853    7.27198470741408    3.19567562092411
C         7.54463672218417    9.20169162801671    2.36054341294117
H         8.15033332992703   10.08155484563418    2.57436261500178
H         6.50189855340111    9.52377616693017    2.29868045049298
C         7.97367138401031    8.62335395826494    1.01449482513254
H         9.01195955415550    8.29021064064300    1.08193193102443
H         7.36004285506091    7.74954922281953    0.77951254343207
C         7.84487269377404    9.64658450379792   -0.11097582605397
H         8.46436893820332   10.51507121572152    0.12329041178640
H         6.80838330848041    9.98735370860954   -0.17104053063326
C         8.26676302868862    9.06886126304340   -1.45629401413694
H         8.16858130024401    9.81422051912408   -2.24221004136168
H         7.64689171783696    8.21291372179690   -1.71554805092479
H         9.30348705910926    8.74138796370131   -1.42115363677950

