21
CSD_code = AQASER | q = 0 | S = 0 | Stoichiometry = C8H6Br2N4Pt | MND = 4
Pt       -1.23032253682832   -0.33526815196597    5.01940640592305
Br       -0.94030950241470   -2.67698899819035    5.15197468980406
Br       -3.55866171164572   -0.64572466646871    4.75698409876680
N        -1.32485021838888    1.68605967248563    4.92440686974384
N         0.07166280212647    3.59790171541251    5.01577135915041
N         2.22590821875893    1.92568349489538    5.34790880120485
N         0.73962493529520    0.08369774121311    5.23725939468542
C        -2.38876950451124    2.47891396138669    4.76388759511560
H        -3.35217847583469    1.99467225105190    4.66687493671907
C        -2.26159722661867    3.85370543143811    4.72432216311869
H        -3.12573660626769    4.48295959851845    4.59556215566086
C        -0.97678423034772    4.37842469720787    4.85806028816673
H        -0.77988604013124    5.44074027520601    4.83894441785296
C        -0.12191769647533    2.29283229790522    5.04537677619148
C         1.01910046525517    1.40725127346297    5.21971721937034
C         3.24214919899931    1.10359588314055    5.50510918877832
H         4.21434320460235    1.56398323107866    5.60795846339161
C         3.06251042366592   -0.27869027983020    5.53543847596640
H         3.88663642816403   -0.95976451598966    5.66282763384009
C         1.77189329020222   -0.75036214455541    5.39519600861290
H         1.54978478239495   -1.80992276740275    5.40821305793650

