95
CSD_code = AROPIH | q = 0 | S = 0 | Stoichiometry = C38H50ClN4OV | MND = 6
V        -7.42300072065661   -1.81130227203452  -16.15644781918298
Cl       -7.42528756112167    0.17992094731254  -16.15752511430037
O        -7.42230395800759   -4.72213569811457  -16.15666797683665
N        -9.21512548796859   -2.26084066437982  -15.50193163083694
N        -6.96126820454693   -2.20208875126701  -14.15909994762302
C       -10.48498333519543   -2.21492413188661  -15.90302346977309
H       -10.76018212056214   -1.83536154263878  -16.87251306724655
C       -11.33929501027992   -2.67605028663164  -14.89647930501444
H       -12.40983853862935   -2.74230468767456  -14.95226174213887
C       -10.53768435687803   -3.01104011224275  -13.81457956391105
H       -10.84989356817285   -3.40169729896395  -12.86403796775615
C        -9.22096998132371   -2.72499253750613  -14.20811591655168
C        -7.99851365675839   -2.65773659985380  -13.52854760710010
H        -7.94640182137290   -2.90296051708600  -12.46385577097509
C        -5.78754984588137   -1.95565117302976  -13.41513557525073
C        -4.83008414828372   -2.96515583240146  -13.22285500778609
C        -3.68067770991700   -2.67621319996830  -12.50156611137093
H        -2.94180463640754   -3.44621060194588  -12.34217801286802
C        -3.46894033188142   -1.41857252599689  -11.97084673114259
H        -2.56538230948228   -1.20813185243147  -11.41783261494290
C        -4.43204783662217   -0.44191765546309  -12.12748014704712
H        -4.27840643608948    0.52816315294577  -11.68040003540440
C        -5.60194547570283   -0.69214016437742  -12.83164046609661
C        -5.07719096296013   -4.36917002234739  -13.72572875563883
H        -5.86430433867317   -4.31779358480763  -14.48334006553072
C        -3.84341410382955   -5.00301893073722  -14.37006525323976
H        -3.46715154349541   -4.37289629442110  -15.17242011992705
H        -4.10270750700085   -5.97545445542673  -14.78639871407893
H        -3.04877887129023   -5.15829833384072  -13.64440593366127
C        -5.55565667570608   -5.23483630904815  -12.55375847317064
H        -4.80308440177284   -5.25187893208653  -11.76752764682094
H        -5.73324228586079   -6.25885016967070  -12.87729320569953
H        -6.47856239634601   -4.84410562400920  -12.13000352494345
C        -6.66624067030498    0.37930238633072  -12.90368473417514
H        -7.46492927410635    0.04507582247996  -13.57446753998174
C        -6.10164498227414    1.68922736591140  -13.45738400533924
H        -5.39648789855749    2.14144230714629  -12.76398258662991
H        -6.90991070837252    2.39615944164952  -13.63121334269904
H        -5.59446751024348    1.50831880866429  -14.40261316898401
C        -7.28057551309139    0.59679800588184  -11.51759329074704
H        -6.52678542798010    0.92670773742304  -10.80600994689670
H        -7.72176824854184   -0.32604479641479  -11.14590735688169
H        -8.06046263099323    1.35325103841790  -11.57017249754106
C        -8.21407325028698   -5.54848015274876  -15.30280604517177
H        -9.26179506612336   -5.48459835184072  -15.62231379922784
H        -8.14230305331929   -5.16934235775872  -14.28098342853670
C        -7.67945040459379   -6.97231263278568  -15.43965889386972
H        -6.85586645713512   -7.13745042083328  -14.74454379636949
H        -8.44984821835146   -7.71778210259003  -15.25751453302249
N        -5.63055697614162   -2.25909271185966  -16.81048485967095
N        -7.88370560167381   -2.20174163628742  -18.15360613714329
C        -4.36086286896153   -2.21236588246261  -16.40890846713038
H        -4.08619875777313   -1.83193092688720  -15.43961462152606
C        -3.50594639523477   -2.67361862065483  -17.41486844277619
H        -2.43538100150733   -2.73925278995096  -17.35865977291785
C        -4.30702848932245   -3.01008052506081  -18.49672856445016
H        -3.99427553213688   -3.40141587888323  -19.44681466656536
C        -5.62398122501680   -2.72404954064100  -18.10404900731245
C        -6.84623950230399   -2.65725071762952  -18.78399784622358
H        -6.89823142261134   -2.90294586703281  -19.84857452396337
C        -9.05730546577683   -1.95534165820177  -18.89778293595609
C       -10.01495881123789   -2.96470708890323  -19.08985758515689
C       -11.16432299473333   -2.67564689358134  -19.81116040869158
H       -11.90344330670013   -3.44547826848651  -19.97025329970308
C       -11.37572535253137   -1.41810289594958  -20.34225072178973
H       -12.27919481660396   -1.20757411717612  -20.89535521217405
C       -10.41226457832133   -0.44171662223489  -20.18608765734773
H       -10.56551658078580    0.52818100626714  -20.63371037368121
C        -9.24246887531889   -0.69200048520667  -19.48175702547275
C        -9.76796010506852   -4.36877857047056  -18.58703122316228
H        -8.98085318037620   -4.31751688051097  -17.82940964333684
C       -11.00167675597370   -5.00291870048290  -17.94287640358353
H       -11.37776930347620   -4.37332773808355  -17.14003747533401
H       -10.74237858289383   -5.97565572025232  -17.52723733906021
H       -11.79645254246282   -5.15766231424311  -18.66849554472565
C        -9.28949596523190   -5.23417153163504  -19.75920583255725
H       -10.04215189030415   -5.25112775395359  -20.54536336963712
H        -9.11181492295109   -6.25823214792646  -19.43587509911950
H        -8.36666174996409   -4.84329980875374  -20.18297945167691
C        -8.17775745097895    0.37911357223826  -19.41011935478423
H        -7.37912807652962    0.04484112784838  -18.73920185013507
C        -8.74185067708734    1.68939099867478  -18.85677655151264
H        -9.44743304769944    2.14129965315436  -19.54991874949671
H        -7.93339049533678    2.39633222289309  -18.68383902073244
H        -9.24840446005273    1.50896982015193  -17.91113733943937
C        -7.56373959211749    0.59616902983891  -20.79646791825555
H        -8.31748829613617    0.92687038193188  -21.50772305588329
H        -7.12358769363711   -0.32704284955382  -21.16846221057936
H        -6.78309721386947    1.35187582299638  -20.74419486995311
C        -6.63042425798739   -5.54807730657067  -17.01080383498140
H        -5.58272499268775   -5.48427820945922  -16.69119420205648
H        -6.70213121201290   -5.16850859521054  -18.03246891800716
C        -7.16498763899646   -6.97198929440051  -16.87461823675617
H        -7.98857116030790   -7.13681349436352  -17.56980635353057
H        -6.39457071731190   -7.71735502885021  -17.05712176213415

