87
CSD_code = AVEDIO | q = 0 | S = 0 | Stoichiometry = C32H50Cl2P2Ru | MND = 5
Ru       16.88431073241214    3.59647292498690    1.68763440601271
Cl       15.96591871200233    5.21290740259362    3.06204839880295
P        18.42680730627167    5.03857850181374    0.66359139137303
C        15.54101981095928    3.59591109589588    0.31850207555849
H        15.73857620625286    3.59617940330690   -0.75610448950351
C        14.18872183906338    3.59607782139439    0.65724366678237
H        13.93474127811518    3.59613565539815    1.71113880909649
C        13.17883444818479    3.59611631325340   -0.27605495213990
C        13.56483147361402    3.59611570602867   -1.70942754469501
C        13.77471923030438    2.39582647347269   -2.38047853623555
H        13.61586577483614    1.46390944423600   -1.85769472296971
C        14.19102949941581    2.39796602293586   -3.69976332091768
H        14.35311096673319    1.46109300912818   -4.21275623930436
C        14.40229648961130    3.59611178829458   -4.36140166176955
H        14.73048331694218    3.59611023487148   -5.39038674371387
C        11.76711084148105    3.59611626955230    0.04389483241703
C        10.82047876973175    3.59611784154357   -0.99226498831470
H        11.15777282154137    3.59612353150739   -2.01861457310435
C         9.46796007879429    3.59611053896405   -0.72163006584901
H         8.75886108310035    3.59611188065965   -1.53694389333633
C         9.01711730486349    3.59610283953897    0.58894090288579
H         7.95819571876216    3.59609095034632    0.80056469818149
C         9.93717595381813    3.59609488962903    1.62630972176874
H         9.59325128610697    3.59608526296526    2.65028959643115
C        11.29099718430702    3.59609864388931    1.36276861269611
H        11.98290584609830    3.59609496263716    2.18929992118901
C        19.55085237945313    3.59600780426926    0.18827952169077
H        19.85678880090919    3.59603780030043   -0.85750320479084
H        20.44408101277989    3.59604289756662    0.81718562164761
C        18.10301987110715    6.13417081985996   -0.87123079799090
C        19.22497453801604    7.10456349355526   -1.23481975738791
H        20.17008076425628    6.58022401769715   -1.35872556135145
H        19.34468434091594    7.89424586695746   -0.50197360612043
H        18.98043944692304    7.58088693889183   -2.18417045607509
C        16.80058382514518    6.87578084767798   -0.55176888966922
H        16.38918307415516    7.31662021153562   -1.45845286969363
H        16.94670775992939    7.66951253618989    0.17300850945455
H        16.06792422626796    6.17732589745927   -0.14073975448916
C        17.85018692003068    5.27108718245442   -2.10413643225245
H        17.03101224868587    4.58527996099381   -1.93192489365860
H        18.73718886561819    4.71878945183230   -2.40078817417588
H        17.56893154430233    5.91291333041339   -2.93823594293291
C        19.45116500309476    6.09651587340359    1.87853828710735
C        20.87234672868574    6.44331979424796    1.42288630574337
H        21.47530286529295    6.67252967271351    2.30119302376533
H        20.90008975267498    7.31317052468322    0.77688891089977
H        21.34659515598683    5.61336121507606    0.90138320260616
C        18.64928593175447    7.35356240611073    2.21951748710197
H        17.63087055258431    7.07502946613370    2.49262479972443
H        18.62179300490270    8.06776324235368    1.40248652667436
H        19.10460353464838    7.85357463412438    3.07385459626315
C        19.55801717910812    5.27838478779758    3.16901981051087
H        20.34748697197208    4.53654015554469    3.09621835368521
H        18.60677207887429    4.79071093437127    3.40932005647783
H        19.80223687801820    5.93348033456878    4.00404991655104
Cl       15.96632530381668    1.97918980454780    3.06152825165659
P        18.42652284007810    2.15366227233881    0.66371404078340
C        14.19104197571209    4.79425973722344   -3.69976381270854
C        13.77473938102814    4.79640272989812   -2.38047671181679
H        13.61588756288259    5.72832126981199   -1.85769519061197
H        14.35313086607145    5.73113126708241   -4.21275716866153
C        18.10304019810125    1.05808431329046   -0.87120442586072
C        19.22498980854528    0.08768568579221   -1.23482222988473
H        20.17009746913347    0.61202723487708   -1.35871074197516
H        19.34468996678571   -0.70200146984970   -0.50198024975235
H        18.98047474910065   -0.38863602000564   -2.18418096799901
C        16.80060792508513    0.31646838719186   -0.55176787506079
H        16.38921774696144   -0.12434386514312   -1.45846961238199
H        16.94672728844985   -0.47728372449589    0.17298660477865
H        16.06795330774158    1.01491882658526   -0.14072086946429
C        17.85020583833870    1.92115370369478   -2.10412558177372
H        17.03101126492039    2.60694150869047   -1.93193200676307
H        18.73719678651032    2.47347421589809   -2.40076925684510
H        17.56897504197634    1.27932542241081   -2.93823327320393
C        19.45114029699352    1.09575281989562    1.87849330114946
C        20.87234070355564    0.74892056378348    1.42288464748591
H        21.47530936241013    0.51972894909714    2.30118997980387
H        20.90008162770542   -0.12094821106609    0.77691219769129
H        21.34658837685405    1.57886377461505    0.90135544890993
C        18.64924728185951   -0.16126920380856    2.21951737901263
H        17.63083060004268    0.11727796784908    2.49262670068758
H        18.62175208614638   -0.87548683908235    1.40250222479808
H        19.10457272494403   -0.66126695495273    3.07385968124816
C        19.55798644269734    1.91388224664207    3.16897723588285
H        20.34746709557735    2.65571688318410    3.09617927972643
H        18.60674298791002    2.40156961444890    3.40928416678585
H        19.80220586261846    1.25878558188244    4.00400894370232

