68
CSD_code = AVINEA | q = 0 | S = 0 | Stoichiometry = C21H40ClN3NiP2 | MND = 4
Ni       18.61027524100999    7.07892176521574    0.92101347672318
Cl       17.83671406616478    8.20012105208514    2.47646509387548
P        16.72045979712978    6.22471840404710    0.20851900402965
P        20.66371815676952    7.63506459851723    1.32756130353305
N        17.27702281676165    5.48002093449480   -1.20665978309506
N        19.39916663209780    6.07228397467111   -0.52362683927044
N        21.49722963117281    6.76407276960738    0.21864595291249
C        15.39476072697953    7.36643731537139   -0.48086439736274
C        14.57231019619236    6.76989956955371   -1.61993635934133
H        13.85221099468916    7.51224658111601   -1.96292293329370
H        14.01914673157299    5.88869829960000   -1.30764793595252
H        15.20600267398000    6.50943593241912   -2.46534891087009
C        14.49614163582110    7.85746653732500    0.64994500808369
H        13.93089770798886    8.72950558477501    0.32327727136656
H        15.09836873156802    8.14420805826141    1.51140029835295
H        13.78500910457024    7.09126378328896    0.95024297900224
C        16.22153177384022    8.54223026099301   -1.01427222403722
H        16.77157670415776    9.01117966403377   -0.19511027608492
H        15.57838613815858    9.29482949972788   -1.46759246114767
H        16.93488686957684    8.20163033369270   -1.76679765318560
C        16.02153578158235    4.77877122831962    1.20470490432111
C        17.23138592848099    3.84894618815603    1.35682618011327
H        17.02161171687099    3.06310357219521    2.08060592907559
H        18.09728102297513    4.41656363512853    1.71264723239046
H        17.49776480511400    3.37814860078199    0.41111128361819
C        14.86814562157729    4.03457191852359    0.54223877412252
H        13.96567039014407    4.64090449504360    0.52453593638517
H        14.64911520851772    3.13042836732271    1.11003248846014
H        15.11466849173484    3.73522945873361   -0.47571651011295
C        15.61792755599127    5.28211351928629    2.58980309774416
H        16.39517108439125    5.92462722581898    3.00229891792458
H        15.47449725819251    4.43951535137076    3.26510090516676
H        14.69238449272864    5.84876593609869    2.55739409470163
C        18.64687951578501    5.38655429763555   -1.39291594187660
C        19.19242026675064    4.64839253173907   -2.42689040570098
H        18.55441193212514    4.10533823974032   -3.10574278874862
C        20.58234411551187    4.63205137045775   -2.55852138263577
H        21.03276933973381    4.06150950283627   -3.35752747034275
C        21.36380521428794    5.33308177126384   -1.68362492945317
H        22.43816383190536    5.34651754248501   -1.75641819557727
C        20.76393305325028    6.07810332865976   -0.63956332660418
C        20.34097102702194    9.58056790521851   -0.46173129704028
H        20.78458747434305    8.92768760556468   -1.21254687565711
H        20.39515122997316   10.60827207276061   -0.81781019927866
H        19.28311386081635    9.30950862299682   -0.34582395970254
C        20.50440676266884   10.43302192122638    1.87421222484381
H        19.46582639842692   10.21004071150966    2.10841895403909
H        20.55412370105686   11.43337539470434    1.44431765577668
H        21.07280352538713   10.43787049376204    2.79934033936482
C        22.56645837887523    9.59201840861530    0.69466695909227
H        22.77249065204635   10.51064901191793    0.14608119705287
H        22.96894874365200    8.75000808941402    0.13526523879018
H        23.07386220236661    9.65035734459785    1.65457236564525
C        21.06368477693596    9.42243090425452    0.87989031161212
C        21.36197685297142    7.03874332481797    2.96973949029092
C        22.86856481662383    6.83553018214366    2.86181791845624
H        23.10729185729866    6.30836640541447    1.94113390790717
H        23.22365156119965    6.24836974090832    3.70814822941927
H        23.39488663217838    7.78612701215749    2.86218245006489
C        20.66273468750783    5.68604480672764    3.13946871879147
H        19.57649214716738    5.83148350457741    3.15776627331801
H        20.95944863084839    5.20453041090294    4.07015378829671
H        20.91813891398258    5.02522051239980    2.31005713833138
C        21.00381450384020    7.94963764004602    4.13755485960528
H        21.18831034309483    7.42969515961701    5.07744592824825
H        19.95327737623988    8.22984492037918    4.09964090794088
H        21.61050377111737    8.85144560847751    4.13135298767328
H        16.69767621438499    4.88197928446802   -1.78008492022935

