46
CSD_code = AZIXIS | q = 0 | S = 0 | Stoichiometry = C22H18BrN2NiOP | MND = 4
C         9.41440287507273    6.78099849583117    8.76893454688668
C         9.44065234233410    5.84290491211617    9.79334852882125
C         8.27321258064335    5.23149819747403   10.22528972727659
C         7.07120668742603    5.57212356457015    9.62294316071327
C         7.01139190027902    6.50925242441664    8.60181190526734
C         8.19088215711166    7.10382571859089    8.18570751065251
C         9.61168669327646    8.52327300543570    6.95444769334944
C         7.45519396942499    8.67854972780026    6.34748174651733
C         8.17915992594093    9.53200230165666    5.58088991270948
C        10.54129382289842   10.19739344716371    5.36106630295175
C        13.01251758821336    5.09194969491129    9.15643476444636
C        13.48917526639285    4.95430554954205    7.86139051943179
C        14.35462266513019    3.91746364978899    7.55596632646024
C        14.73324055161518    3.01914554949923    8.53869200422863
C        14.24758764460653    3.15199355296883    9.83142425202505
C        13.38930117012366    4.18807663109956   10.14388322667333
C        12.72376190020192    7.15959270862321   11.02958036593122
C        12.06189311963957    7.39747556916338   12.22721876852963
C        12.73864804055852    7.98674383267873   13.28001774832281
C        14.06643575028886    8.35292972793260   13.13347295685072
C        14.72120340102089    8.13251958233856   11.93166009088801
C        14.05357743506461    7.53937525637773   10.87720213316076
Ni       10.94536566847840    7.66086916025178    8.14187420600984
Br       12.88940289495605    8.59174515714144    7.58125798232763
O        10.67215088551800    5.56409475021248   10.35695728094366
N         8.34416899154404    8.07118652944114    7.17990430583501
P        11.86046568521956    6.42564729952585    9.61253222817976
N         9.48927252693669    9.42341527811839    5.96396926277169
H         8.31003061914462    4.50226192087991   11.01959565974213
H         6.16161493443621    5.09766564833659    9.95847244237741
H         6.06581718301055    6.76507922799516    8.14810988853534
H         6.40553464401572    8.46965070255971    6.35672771828600
H         7.86918521287871   10.19852180021193    4.80233316265923
H        10.37311998195853   11.25994981578305    5.54319157504396
H        11.49928522331428    9.91047509794826    5.79081313268375
H        10.56172060600700   10.02128417759889    4.28489013530756
H        13.19421289278094    5.66154673132755    7.09755447745118
H        14.73351209072007    3.81354843584668    6.55013064275322
H        15.40874726735989    2.21086847814453    8.29939580789320
H        14.54261735527806    2.44755164865295   10.59548129341179
H        13.00261921666101    4.30516421960084   11.14687936144993
H        11.02343515414540    7.11590676005791   12.33361100309550
H        12.22656715411397    8.16624167282994   14.21436256911820
H        14.59036947194249    8.81696581917162   13.95618552155926
H        15.75325593705071    8.42701689582907   11.81439314779778
H        14.55378091526247    7.37794967255234    9.93241300267317

