50
CSD_code = BAFKAW | q = 0 | S = 0 | Stoichiometry = C19H25ClN2O2Pd | MND = 4
Pd        3.01719542700367   -0.71706644909990   12.45664618636132
O         4.22951842907057   -1.00402096028172   10.88891713491305
C         3.94800914396763   -0.76738770158231    9.66195794663186
N         1.68608789035773   -0.27469734160940   13.89346166047415
C         1.63053488195089    3.08088564465619   16.12549454756905
C         1.69810634793998    0.54509994461931   14.87340345380500
C         3.04756754090348    1.04403622717122   15.43199564042247
C         2.77725131037740    2.11045890647649   16.50711507954403
H         3.71860846422675    2.53829822910502   16.84572572052522
C         4.80197356761379   -0.74934288479210    7.37462626049030
H         5.62318522767770   -0.89463003464037    6.68778585661879
C         4.99317991550047   -0.94432559274814    8.71166215426972
H         5.95261483244305   -1.24566165811437    9.10409161272227
C         0.45012621820690   -0.78597280179163   13.32161308863766
H        -0.42359997412204   -0.65425809770435   13.96594942179635
H         0.58825703933989   -1.85887793733352   13.12579084450910
C         1.64284029695273    4.33517453921655   16.99552632682537
H         2.47881720437399    4.97346750208674   16.71709572235321
H         1.73662932009507    4.09561058001925   18.04956543717859
H         0.72155969486610    4.89736754149018   16.85408995619805
C         1.41671771315076    3.51517761435027   14.67850281313224
H         0.41515332179305    3.93272003643038   14.57754335326296
H         1.52153658814180    2.69856436749899   13.96945025577392
H         2.12822559977104    4.29311590582317   14.40933704867636
C         0.69060546993261    1.98794393062351   16.68071209162256
H        -0.23983568260787    2.30195616494157   17.15616981563243
C         0.43488968515140    0.93743966411425   15.60937928655094
H        -0.30602213783031    1.30920924096084   14.89631432715250
H         0.02306740635264    0.03998946427015   16.08344261514184
C         2.51426353203252   -0.18571934735836    7.75526598224797
H         1.54111708227577    0.11115250531900    7.38740942679240
C         3.54764625827476   -0.36599562603205    6.88058521591239
H         3.40462646256957   -0.21807301368290    5.82144822851116
C         2.66944500558674   -0.36346922954597    9.14758653807524
C         1.52569742549771   -0.16650546349680    9.96381446935578
H         0.58525949162868    0.00935883133572    9.43202526859964
N         1.50345860191196   -0.17674368586019   11.25402374840550
C         0.26314810868357   -0.04913365490980   11.98395184449438
H        -0.58444897677258   -0.46606679895677   11.42386256086258
H         0.05990950340882    1.01314104402560   12.18249963373014
O         3.62683530870952   -0.05821367940342   16.08632162350715
C         1.84408127078145    1.49851708392626   17.56226433395750
H         1.94002055005716    0.42490499890571   17.69603871901177
H         1.89906324783370    1.99077888598191   18.52799844836260
Cl        4.56446160051328   -1.70168954861786   13.75301947406669
C         4.00941885236710    1.63120140097604   14.37819809332226
H         5.02047061340433    1.48414274729885   14.75321672303608
H         3.84049847436572    2.69523831076373   14.24866966196080
H         3.93496751764876    1.12888972396936   13.39217488729125
H         4.02285932663890   -0.66648952876152   15.41565945973945

