88
CSD_code = BAHQIM | q = 0 | S = 0 | Stoichiometry = C43H36ClCuN4P2S | MND = 4
Cu        9.99292067161715    4.29490346895250    4.04571592665895
Cl       12.26049131148939    4.46874420176500    4.00631218935953
P         9.30593287459396    2.17864221682703    3.83257291504196
P         8.93309024911563    5.93520416149289    5.19354990959690
S         9.34792629907195    5.23463567320482    1.68489656724881
N         9.99402350023793    7.89954145838636    1.51285858145602
N        11.09985866873855    8.63861648496547    1.74977951090822
N        12.01576190263840    7.89491977343735    2.15336468433695
N        11.58927500030241    6.63836206470370    2.19597474472854
H        12.07671506849625    5.86229718029226    2.72469365226702
C        10.28863385484935    6.58954457061815    1.80423769654695
C         8.78750531109371    8.51010130705965    1.15384173797234
C         8.66249511088927    9.88003927167248    1.37144880809311
H         9.49901728010668   10.42232501350355    1.78200368212459
C         7.47716529217066   10.51474471691327    1.05803309323862
H         7.37951268791591   11.57641209160211    1.22818935137077
C         6.41650474275978    9.79520028602954    0.53017771340001
H         5.48871541583463   10.29384021124676    0.29337198150157
C         6.55438336183380    8.43766369445735    0.29844215807254
H         5.73862603809035    7.87510501395205   -0.13010713742730
C         7.73746604407272    7.78745214816180    0.60015505862435
H         7.84503452701199    6.73360504071002    0.40505761871426
C         7.61891347811485    2.00190392729099    3.17728238613594
C         6.66906063769321    2.88304591249354    3.68840934276451
H         6.96655165146171    3.59841606915708    4.44694694377708
C         5.36876625822726    2.85516798711659    3.22562115598843
H         4.63993973284191    3.54474193295921    3.62656473817726
C         5.01106756016260    1.95004687638491    2.23826367580321
H         3.99637600296247    1.92797264686796    1.86867465162389
C         5.95530636610180    1.08010043743364    1.71802227830472
H         5.67528408454809    0.38089939002155    0.94343417692881
C         7.25953083050034    1.10337779369954    2.18057317797859
H         7.99724853724365    0.43003012450419    1.76731717338318
C        10.29958887947962    1.09730952183055    2.76151486893456
C        10.91786470339688    1.70048257462150    1.66970936610730
H        10.78491439154466    2.76188848761908    1.50745827944625
C        11.69870178930327    0.94683254952641    0.81368688355856
H        12.17966117022580    1.41619583939692   -0.03175379172953
C        11.87002032129715   -0.40795347438370    1.04820511803925
H        12.48483557699084   -0.99733351278203    0.38368446044987
C        11.26069100166061   -1.00910541183994    2.13837631877478
H        11.40094605205996   -2.06483906123413    2.32163155988806
C        10.47663431013678   -0.26228341266095    2.99876419136800
H        10.00624868212522   -0.72926076526262    3.85369659649508
C         9.26045777041710    1.24568544522763    5.39259632112812
C        10.44274627878673    1.24895568466530    6.13153296253324
H        11.31043560163299    1.75971989599377    5.73338902805908
C        10.49921294673604    0.61189610085103    7.35498055443716
H        11.41795065139379    0.61178875528016    7.92278303259623
C         9.37099659486515   -0.02080583159111    7.85568481829708
H         9.41183363373729   -0.51729975929283    8.81425738703190
C         8.19049907099869   -0.01291454825489    7.13120454237438
H         7.31119928480559   -0.50235507764815    7.52507129108708
C         8.12880202253241    0.61995595371021    5.90152703553396
H         7.20605924642034    0.62798915583392    5.33766469221466
C         7.14590336118458    6.27790077889949    5.06566650571426
C         6.31734959797707    6.43841265764656    6.17088863569371
H         6.72418810722258    6.36064621556756    7.16939198618554
C         4.97105965142373    6.70040928499389    5.98723254128931
H         4.32905606135174    6.82625784645313    6.84734981808708
C         4.44542677800221    6.80573437971214    4.70955334717996
H         3.39379123319554    7.01341138677077    4.57516904734022
C         5.26732386635868    6.63886048707156    3.60586997565840
H         4.86245463297235    6.71415093583420    2.60751546032465
C         6.61060802280441    6.36855447756351    3.78242878969533
H         7.25416229918768    6.21443153747313    2.92730759712659
C         9.13044569238974    5.54301263165703    6.95941212074795
C         9.62507090023372    6.41973762215490    7.91709067790195
H         9.89755089326148    7.42847913687182    7.64077048112597
C         9.77050562258799    5.99321864788695    9.22590417943979
H        10.15672165223417    6.67516198669673    9.96949676263076
C         9.42727119227014    4.70028368134487    9.58539423678383
H         9.54810839094357    4.37480746460434   10.60802810926963
C         8.93559899281287    3.82156832828343    8.63238650289207
H         8.67439663548168    2.80918580517267    8.90372459718553
C         8.79326908539097    4.24132131037304    7.32499307853555
H         8.42469276826266    3.55898579244936    6.56746189223942
C         9.65296262553166    7.59989371736582    5.05183632331693
C         8.91962264039260    8.74770103287761    4.77345965881315
H         7.84699180390905    8.69345675130509    4.64892911615474
C         9.57167630835117    9.96330975225342    4.65552113430875
H         8.99773658874389   10.85521921505785    4.44931862558767
C        10.94689006000253   10.03898980227217    4.80043420804449
H        11.44854591163497   10.98978361657038    4.70221204381993
C        11.68300768531831    8.89230385518288    5.05681777147897
H        12.75699671429146    8.94390631323835    5.14688873220414
C        11.04073687638339    7.67551322796021    5.17814345084569
H        11.60657701450054    6.76863806292865    5.35185693103264

