55
CSD_code = BARKIR | q = 0 | S = 0 | Stoichiometry = C26H24I2NiP2 | MND = 4
Ni        3.50254878521850    8.12191222245141    8.07111315282758
I         5.10525321896302    6.70998498868728    9.28150743334221
I         4.97628410410960    9.97862964631511    7.41039727823033
P         1.96545184006414    6.75783317956475    8.65357560298152
C         1.38997277368068    7.55095609221275   10.18196402449568
C         2.03964039908202    8.70454448935878   10.61167066985712
H         2.92535968134457    9.07472331950128   10.07885489533937
C         1.58924364213643    9.38395439718344   11.72871437321117
H         2.09897194312917   10.27699557537225   12.05792787954433
C         0.48782363136686    8.90875251151464   12.42090094412021
H         0.13352548567080    9.43456769453965   13.29480596770124
C        -0.15809960121857    7.75468459159265   12.00173772508987
H        -1.01241659064298    7.38478330505521   12.54954308383724
C         0.28726694855735    7.07384750189990   10.88465781015298
H        -0.20963844795357    6.16914263104173   10.55895344460989
C         2.02306449512016    4.98655670398513    9.01709951435260
C         2.31501151402864    4.54549061369682   10.30441706748920
H         2.48135512841885    5.26278092803857   11.09630506140697
C         2.40671968534537    3.19128666387201   10.56204997120645
H         2.63200580401094    2.85209944954010   11.56167509879179
C         2.22450240125642    2.27423372696820    9.53937037337703
H         2.30384369259454    1.21687195708867    9.74233850710568
C         1.95884614952123    2.71182944416796    8.25241905121192
H         1.83585434345772    1.99836113537985    7.45094649687601
C         1.86527698398441    4.06537844293257    7.98645958520476
H         1.68193202723200    4.40334755744663    6.97493938764082
C         0.45149641188487    6.92507946179073    7.58773704249390
H         0.63728087802249    6.41219759023166    6.63725123481364
H        -0.41020619010309    6.45612506231487    8.07142578244545
C         0.26091130390544    8.41208482119173    7.35193852746570
H        -0.13160841753246    8.89313192785914    8.25386385188087
H        -0.41937904772472    8.62569769516431    6.52228355246072
P         1.94809400140259    9.10747528908706    6.98429418597220
C         1.62105013841035   10.88026082114306    6.83366412905050
C         2.11078052143582   11.61539989062705    5.75893838584915
H         2.67493752033734   11.12353448709296    4.97908359164785
C         1.89160071693384   12.97878938608901    5.70448158441379
H         2.27004187814442   13.54677072819155    4.86825424783288
C         1.20523439249362   13.61617927066770    6.72536440209145
H         1.04173464114803   14.68236716348560    6.68202327898965
C         0.74655489957135   12.89129928718166    7.81295297778166
H         0.23219411974918   13.39045442476337    8.62094317931433
C         0.95881699733283   11.52682423717572    7.87336298414944
H         0.62378465347152   10.96781686433155    8.73842841483251
C         2.20372937809474    8.46638937896348    5.30735400264275
C         1.37892996661547    8.82567604575333    4.24543104463242
H         0.58973132498284    9.55108115865803    4.39568412422635
C         1.58518986729305    8.26245367314171    3.00035266053522
H         0.95234723120334    8.54691151447265    2.17252030336448
C         2.60152047076520    7.33764777455293    2.81101208209540
H         2.75769464166851    6.90487240656086    1.83426877622136
C         3.41904949962019    6.97072221471963    3.86707828496636
H         4.21203037111136    6.25300922041314    3.72035261810695
C         3.22027805363503    7.53583309697864    5.11297715654182
H         3.88107973764339    7.25656633797740    5.94403319313584

