53
CSD_code = BAYCAI | q = 1 | S = 0 | Stoichiometry = C23H24ClN2O2Ru(1+) | MND = 9
Ru        0.29653984283170    4.04751809555353    2.38252015616037
Cl        0.12072493101605    5.65217150586673    0.71231450421747
O        -5.27744173846790    6.32536540986917    7.07861368593265
O        -3.96785332147319    8.10041175860419    6.72118697769919
N        -0.10869192839107    2.78400410032256    0.90703325690384
N        -1.64730298307614    3.98722426822971    2.44434872161536
C         0.79992166926767    2.23619850423819    0.10470486520987
H         1.83867927492366    2.42655598469589    0.34252936983054
C         0.45661118928380    1.47346929630095   -0.99505693524283
H         1.22939069267368    1.05062277436244   -1.61554873422667
C        -0.88976967112549    1.27372798635940   -1.29324698692258
H        -1.17902321083736    0.68974557482777   -2.15202120873994
C        -1.84196352053448    1.84994105053655   -0.47939849843764
H        -2.89594837221598    1.74372920318453   -0.67865658047545
C        -1.42596367383226    2.60895921088572    0.61887812862554
C        -2.27633957636107    3.29382777971828    1.54062901817834
H        -3.35754304892326    3.26148066478580    1.48067617970510
C        -2.33740387053044    4.70071416774161    3.42743613830405
C        -2.02327038125695    6.04937309362190    3.61596315927038
H        -1.30250152548035    6.51770567051863    2.95814406558479
C        -2.67349752266745    6.76951275731533    4.59506998008577
H        -2.45895383685887    7.81507323072526    4.75539113573941
C        -3.63289597262271    6.15484404564901    5.39852427043219
C        -3.95180877085491    4.81420565312108    5.20322810876532
H        -4.70001507116450    4.34855516186677    5.82452828206126
C        -3.31194045179629    4.08863385326488    4.21739245219018
H        -3.54326529453736    3.04435817422896    4.06689896886438
C        -4.29284772338430    6.97405484829534    6.45472456426855
C         2.41817177713577    5.09261813952458    2.96303923776323
C         1.41655500261684    5.51912232159967    3.88566903883630
H         1.29962252413591    6.58018550424479    4.07557959059923
C         0.69536796433453    4.59567250916402    4.64320286959575
H         0.02659554544301    4.94700027667565    5.42198280344720
C         0.85879004934931    3.19925216835240    4.44918104506396
C         1.80946141645797    2.77778563232875    3.49259776736668
H         2.02819553130366    1.72096691968663    3.38454162149651
C         2.60879941904608    3.71629357193531    2.79209263305551
H         3.42154211292098    3.36319782734936    2.16645938482955
C         3.24570846745105    6.10309062486274    2.24256832477403
H         3.60244358522550    6.86487712122253    2.93368510199011
H         2.63612431465772    6.60346662172635    1.48672241444412
H         4.09532644006385    5.64118728489156    1.74631125882322
C         0.10900332416548    2.21053449905985    5.30920162102620
H        -0.69668666705765    2.74955644091739    5.82111419620902
C        -0.51773576906547    1.09522034053564    4.46832552118589
H        -1.07177765746239    1.51435049782284    3.62501070016318
H        -1.20410965991636    0.51537366534118    5.07900167294179
H         0.23926236541140    0.41647382055116    4.08363614165376
C         1.05420100570570    1.63364865808842    6.36872062109056
H         1.86943710568571    1.08506891349727    5.90320820735419
H         0.50881377847521    0.95385117240658    7.01698062240955
H         1.47638632036579    2.42756347440566    6.98002773777522
H        -5.68802443004957    6.89535816911166    7.74883282050840

