37
CSD_code = BERTAU | q = 0 | S = 0 | Stoichiometry = C16H16I2N2Pt | MND = 6
Pt        8.79884410165755    3.95582344610033    8.56773795019467
I         6.66424553776615    2.52339384982100    7.91145939490065
I        11.00641176870239    5.15475764798619    9.42268148458789
N         9.90882616753982    1.94837489412078    8.86807351209346
N         8.47272274677620    3.24200995758799   10.76847359390722
C        10.59230497084473    1.34320750358776    7.91796736223707
C        11.25681916313129    0.12692965710770    8.15779010780608
H        11.80449036911002   -0.33536034561758    7.35138838794314
C        11.20103695003492   -0.44720171786899    9.39845873554648
H        11.70468427866331   -1.37983896605252    9.60677547901239
C        10.47355369003557    0.18979607529333   10.41910706451600
C         9.83460720809993    1.40435326302706   10.09387347156297
C        10.36269070910616   -0.33633800670733   11.73431244843285
H        10.86501163069581   -1.26671558361958   11.95410751100439
C         9.64642881736908    0.31123031006676   12.68487746061490
H         9.56106637761265   -0.08763100273959   13.68481996832362
C         8.98558135234584    1.53469571217666   12.39313906641551
C         9.07594787046617    2.08891583374318   11.09937622677081
C         7.76527772575306    3.89701974636942   11.66591236224107
C         7.62226675697025    3.41348754923807   12.97920224760723
H         7.03289483304320    3.98094059993796   13.68250931222597
C         8.22732293683371    2.24152004373133   13.34310785437379
H         8.13251684576072    1.85037742371809   14.34560208008460
C        10.65154618028788    1.96924063239471    6.56816709058393
H        10.11703494559071    2.92049115086489    6.57101232176457
H        10.19602121481126    1.31009780101499    5.83006547988334
H        11.68659987321290    2.14346982631388    6.27812807679537
C         7.11205679913075    5.17392003152342   11.26639692833020
H         7.30779743353812    5.38071741221054   10.21350407950739
H         7.49832175138946    5.99653690325702   11.86694123401113
H         6.03615969113421    5.11230648275578   11.42309340039909
C         8.74365512357683    5.07308520757757    6.78415575484343
H         9.71128733193528    5.48071767789121    6.49901765412666
H         8.21304260215514    4.57411655254868    5.97592912909024
C         7.99331250722157    5.73621075525467    7.78474662289130
H         6.90759580690970    5.72946355826442    7.71338368518729
H         8.40591593078904    6.63547811711917    8.23750546018447

