52
CSD_code = BEXJIZ | q = 0 | S = 0 | Stoichiometry = C18H30ClN2Rh | MND = 6
Rh        2.98154798029654    0.38110680468124    3.41930440181958
Cl        3.50374929027912    0.35499783894119    5.66294696171644
N         8.06680271824245   -0.56972448829567    3.03769217503081
N         7.48972046584776   -0.16679583328073    5.09531221872523
C         7.05164464027133   -0.67034094168062    3.92408530743051
C         9.16077884456652   -0.00348679798825    3.66481406301084
C         8.79619235894709    0.24893430290226    4.95180924657379
C         8.02521142393883   -0.96002374844534    1.65453882021855
H         8.04219845597339   -2.04712705761050    1.55753520930169
H         8.88485686445371   -0.54487008305527    1.13501332081863
H         7.11692304620702   -0.57469517986324    1.19217841657605
C        10.45211396913447    0.23126558902557    2.96800306227931
H        10.33920537193096    0.96245798483099    2.16730123548517
H        10.83840665229193   -0.69405726385219    2.54144806776353
H        11.18396443346577    0.61405467249991    3.67242883443093
C         9.57151849937639    0.84713335889295    6.06854682508504
H        10.59891174255992    1.01617840661018    5.76118287359208
H         9.57250943695328    0.18577130150458    6.93379297976383
H         9.14271402230295    1.80337700261504    6.36745515611285
C         6.72550884755687   -0.06865443033309    6.31172121504517
H         5.68340395908371    0.22348674973547    6.10576663510294
H         7.17512946945513    0.67769736759783    6.95973439167433
H         6.71177259861231   -1.02907376285967    6.82968833531499
C         5.63426903056477   -1.01868723273484    3.68157399216665
H         5.17342882851295   -1.17896343465900    4.65801896204793
C         5.03654675459689    0.26483693198248    3.05453496722051
H         5.36639369883223    0.33163268837930    2.00655981764287
H         5.46352291183147    1.14093368583093    3.57022574729297
C         5.36192621444816   -2.27210399121235    2.85405288049965
H         5.60292599555852   -2.14677851674828    1.80251075716083
H         4.29620467153656   -2.48244626855936    2.92747560741535
H         5.91309729182944   -3.12540378214127    3.24715538940361
C         2.53600245236421   -0.29919170938364    1.49602009166528
H         3.38793517701492   -0.78702978517550    1.02316910983972
C         2.52434682142396    1.10221040410526    1.50225767757883
H         3.39147535523232    1.60618797100178    1.07542458762003
C         1.24693727579097    1.91499373389997    1.43731291004603
H         0.49800717330163    1.35894019739428    0.87008768016882
H         1.43887805758471    2.84194928704567    0.89118296930603
C         0.70739009980138    2.26834394469594    2.83674225905079
H         1.12723149740963    3.22973056640328    3.14533024705574
H        -0.38235957470682    2.38685146822025    2.80180459693624
C         1.06977706502523    1.24487907032974    3.88824575583338
H         1.12298130566126    1.65569854825270    4.89714835995964
C         0.89877077262203   -0.12025125897164    3.74904527652594
H         0.86558938175299   -0.72389462346844    4.65716412833152
C         0.25402594047817   -0.75689835836582    2.53791522165535
H        -0.47198246037574   -0.06128588230571    2.11340991388793
H        -0.29763637903021   -1.64679549748747    2.85131407773806
C         1.29296285973070   -1.16158623835842    1.47520824715346
H         1.59929738271543   -2.19625875913029    1.65549313861283
H         0.84066930676666   -1.13042495141105    0.47621587731223

