46
CSD_code = BEXJUL | q = 0 | S = 0 | Stoichiometry = C16H26ClN2Rh | MND = 6
Rh        5.88891432879416    1.83275912880090   23.33203260521314
Cl        6.34671582937770    1.79415355030650   21.09146740461957
N         5.86538510315079    4.83480754058215   20.90642665101409
N         3.90856958540158    3.97348022397713   21.33741039393642
C         5.11522700639350    4.26539291615073   21.87562483670716
C         5.14197634277298    4.84364918509141   19.72589694539995
C         3.92355551803491    4.30924954223114   19.99324992181159
C         7.26649252600877    5.10993229650700   21.05360436497896
H         7.42890233499961    5.82965781214312   21.85842183561846
H         7.66262066915395    5.51364650984144   20.12712135644880
H         7.78635990277166    4.17849528813914   21.29482843183710
C         5.70590402279523    5.36323272142564   18.45356778561654
H         4.94181895056823    5.35973283939268   17.68230333934599
H         6.52985062939678    4.73260470318266   18.12063087908918
H         6.07217983000387    6.38291877233401   18.57376215737180
C         2.74968995671595    4.08185851924206   19.11086492153337
H         2.89644030178787    4.58624083976500   18.16066910801933
H         1.83955948764568    4.46597007481710   19.57075327542606
H         2.61790602774078    3.01769729229940   18.91363692000328
C         2.97284268786336    3.11603663511634   22.00214799917668
H         3.53735203255124    2.25999769054261   22.42455250847732
H         2.23187139534628    2.75247922108343   21.29617755490250
H         2.47217446328615    3.63964355761969   22.81970162379033
C         5.49957270643007    3.96955822656128   23.21372591433611
H         4.69384837880872    4.19237869477777   23.91531666123241
H         6.41167889912657    4.49464125854802   23.50346528597904
C         5.75465083099794   -0.32243874478543   23.40129626662878
H         5.43160066091173   -0.65150155243330   22.41352161623868
C         7.07722145115527    0.06732777199625   23.54547700341948
H         7.72589957525743   -0.00330167530792   22.67234972364454
C         7.82782923874464    0.11060519799556   24.85589758727463
H         8.77161404706519    0.63520905701725   24.68516952364149
H         8.07653220066354   -0.91119119076463   25.16497136471652
C         7.05156821547186    0.83094537318968   25.97410067245268
H         6.46710167997620    0.11480012565504   26.55444434494773
H         7.76752306081165    1.29065905235601   26.65913438465654
C         6.12601216750619    1.90057469974104   25.43176722757930
H         6.38219384476195    2.91221113791494   25.74354942522951
C         4.78704556266731    1.65363866518113   25.11438392677893
H         4.08227870972317    2.47493630179213   25.24800793411965
C         4.11605821784690    0.30170869591569   25.22731017748920
H         3.13099599103460    0.37361896857185   24.75708200318789
H         3.94967035295634    0.06572203193115   26.28503923917570
C         4.91191977173237   -0.82933606752440   24.55095058243123
H         5.56083416185022   -1.32364462468314   25.27555051075781
H         4.21284134193533   -1.58145826425196   24.17853580374894

