62
CSD_code = BEYBUD | q = 0 | S = 0 | Stoichiometry = C22H28ClCuN4O4S2 | MND = 3
Cu        4.73886196911478    0.99605485740053    5.08574721839724
Cl        5.56607451496815   -0.99166989859928    5.76166055546724
S         4.73564500152196    1.48851737057172    2.83275643514151
S         3.97385501163782    2.47790826873131    6.67585606377542
N         5.91528705807396    0.35076328709386    0.73915764580643
H         6.43422551030978   -0.46905856155007    0.40716337042069
N         6.25571339519724   -0.67109059276488    2.77384036647377
H         6.05901516497140   -0.71011977769398    3.79369861367850
N         3.63169778080845    2.30051247207663    9.27682316095894
H         3.53125016758397    1.69642199627258   10.09690373331158
N         4.37915562232067    0.37424858182547    8.24105965055736
H         4.74417252424736   -0.08831474632290    7.38338724395161
O         7.29588340919801   -1.88023198414785    1.12071355773628
O         7.42939484120707   -2.46733608372727    3.29197265145448
O         3.91375118764162   -0.06527630572203   10.44816010033135
O         4.73176126481702   -1.64328909517862    9.07153774662181
C         5.51420265129620    1.24760594230206   -0.26159057592531
C         5.30536807030713    0.72052746094744   -1.54462796611784
C         4.94650580034437    1.58802578779982   -2.56431881815541
H         4.77640848528071    1.19153715881783   -3.55487351147384
C         4.79942549020757    2.94547324771721   -2.33531192034748
H         4.51560113203915    3.60062111133881   -3.14488537367727
C         5.02120658720892    3.45515097527666   -1.06886664912115
H         4.91882520212402    4.51280865910308   -0.88124774310980
C         5.38170196335090    2.61168073923056   -0.03416563695862
H         5.56527554167285    3.01085292797400    0.94812099272059
C         5.45250203779690   -0.74842186330507   -1.80597772812108
H         6.47653684516587   -1.08011624361286   -1.63016720788221
H         5.19687617832739   -0.97531997908583   -2.83757721698780
H         4.79626637709244   -1.32449670047613   -1.15428058675646
C         5.68847494136229    0.35059952853987    2.05200195236843
C         7.02200199849394   -1.70314048281459    2.29085324613962
C         8.20743206031655   -3.62038181593579    2.96493643179606
H         8.76659114418249   -3.84144999425800    3.87556171236171
H         8.89654131788884   -3.36744730131154    2.15248152665821
C         7.32012959670906   -4.79057241252716    2.56766172616644
H         6.59768191308594   -4.99233865026480    3.35445242929758
H         7.93194376301044   -5.67386420326486    2.40952763368566
H         6.78767009016184   -4.56135601354224    1.64767615342765
C         3.19998825515785    3.64483229887241    9.38344723307568
C         4.07101579500958    4.70937366341336    9.14701156719383
C         3.57137565093098    5.99928878999871    9.28580592636431
H         4.23055689081981    6.83428141020973    9.09839400658644
C         2.26247653291653    6.23188080800559    9.66276314892736
H         1.90175013497109    7.24467635667590    9.76075952127964
C         1.41900306624332    5.16541666145072    9.92600416068566
H         0.39863787727435    5.33766204516652   10.23252861614759
C         1.89069066932097    3.87473508340097    9.78918253788790
H         1.24615166233165    3.03045059231533    9.98456491055813
C         5.50123574450311    4.49061843235816    8.77287112317807
H         5.90267715852813    3.60543923022888    9.26220898001387
H         6.10256245001639    5.35326383549000    9.04825624039434
H         5.58366172022803    4.34283041210332    7.69603491151019
C         4.00150347667174    1.68740680488137    8.15523873721209
C         4.31011476787520   -0.42294386137426    9.35825813436107
C         4.71543519469901   -2.59925598429709   10.13491020142503
H         3.68958139903642   -2.69620856858747   10.50787683942109
H         5.34306256637024   -2.22918391321587   10.95338902778542
C         5.23449321613235   -3.91301958333537    9.58415994904034
H         4.60353094321515   -4.24674335556193    8.76536516128255
H         5.23505181900786   -4.66476053153661   10.36786290537226
H         6.24512939762224   -3.78345829360610    9.20778517621083

