57
CSD_code = BILNAM | q = 0 | S = 0 | Stoichiometry = C25H25Cl2N2OPPd | MND = 4
Pd        7.53923818700887   -3.54315939307028   20.59630102019727
P         9.20654684877695   -3.67971443674569   19.10585669057817
Cl        5.89234675726734   -2.83719037466289   22.01562835641440
Cl        6.07284050686867   -3.78258652855070   18.85833009595171
N         9.97755265871176   -2.63660232597526   22.06766858776721
N         8.81014992971225   -4.02965228386975   23.21808286067235
O         5.97597114489168   -7.47799571623966   19.52020034543019
C         8.84112656443052   -3.35692840532163   22.05938799890705
C        10.65402317929312   -2.85213157109397   23.24169851197907
H        11.58181077241539   -2.36807465176168   23.46816775453240
C         9.91417155986124   -3.72750762234362   23.96418979995872
H        10.08570602298248   -4.14461442675667   24.93540631558122
C        10.49871941936509   -1.98600134599655   20.89125131365869
H        11.40336792724021   -1.43849746977936   21.16979063002476
H         9.75698324558218   -1.27119788851190   20.50914931244517
C        10.80850241064307   -3.04277597979532   19.81921159558151
H        11.35799997212934   -3.86828787423310   20.28007491816383
H        11.41602415589379   -2.60491732190169   19.02289895817344
C         8.88684064544458   -2.34420180184057   17.90864506378570
C         9.43271189750401   -2.34793867204071   16.63026520320443
H        10.04091389309323   -3.18249372808687   16.30834364300396
C         9.17651632049160   -1.29507597123355   15.76973837452191
H         9.59038016926155   -1.30511332295724   14.77199487522285
C         8.38440747046496   -0.23610891435203   16.18153114323720
H         8.18107088551257    0.57975715528246   15.50386714625351
C         7.83932989192913   -0.22795128251942   17.45588581426964
H         7.21094841398996    0.59190993054104   17.77072089811115
C         8.08560704546831   -1.27932945227647   18.31932094063005
H         7.61696234833154   -1.29502654659273   19.31157814389261
C         9.65536489294681   -5.10973466345522   18.09179489068218
C        10.95072009923728   -5.58753588076499   17.92630941972910
H        11.78785476427692   -5.08656023549409   18.38987180574118
C        11.17289545741349   -6.71291627878971   17.15174960650654
H        12.18045858334334   -7.08083074894107   17.02126675973729
C        10.11292074707998   -7.36544539287026   16.54462793102639
H        10.29624826559869   -8.24369673479601   15.94309816239637
C         8.82043078001581   -6.89285000660418   16.71082922275017
H         7.99129047186415   -7.40194234755302   16.24339177680092
C         8.58895597774298   -5.77246422700612   17.48507078733696
H         7.58389576494515   -5.39841141183908   17.63484349269058
C         7.85475537932262   -5.09260868507281   23.45269787017653
H         6.84959554122080   -4.65908144076637   23.50723447133603
H         8.10372020511688   -5.58440182333434   24.39603737516472
C         7.95468901437601   -6.05434986920103   22.28195292832339
C         6.86401007807533   -6.25453548415540   21.43253146742204
H         5.91429778142540   -5.78448154615534   21.66879499936187
C         6.98008271111703   -7.13358020109439   20.34913355543678
C         8.21084800020404   -7.75428170056498   20.10367961900488
H         8.28786001503821   -8.41768467296273   19.25716829889538
C         9.28742828145436   -7.52866950335540   20.93209783400636
H        10.22940734097962   -8.01655777774707   20.72927855238261
C         9.16501011100106   -6.68922471299693   22.02855489448382
H        10.00801924258593   -6.52994228761679   22.68689149503492
C         4.71460360753231   -6.85514832549036   19.68131195471555
H         4.09110932507669   -7.24933008902990   18.88111895530684
H         4.79681851181118   -5.76990040784300   19.57480077014223
H         4.26863880461742   -7.10752532182463   20.64817479123502

