25
CSD_code = BIQXEE | q = 0 | S = 0 | Stoichiometry = C14H9ClHg | MND = 2
Hg        9.64442256169241    0.76400600672864    3.82344978212360
Cl       10.56259473475899    2.03505248587890    5.62532002233114
C         6.86835247926061   -1.12679494455424    3.56371617213004
H         7.33757744287828   -0.63782663763494    4.41923420666632
C         5.70942904210972   -1.81896962017072    3.72976735853284
H         5.24900218040264   -1.88776194770268    4.70393846428643
C         5.09527877063934   -2.45553594538568    2.63028814522785
H         4.17481625071327   -2.99869769351295    2.78261847029370
C         5.66186163917623   -2.38209751104907    1.39612876151377
H         5.20102958586777   -2.86597491485588    0.54714678430098
C         9.25427057581863   -0.82480114869675   -1.56033446096784
H         8.76313022051484   -1.32142821608811   -2.38460053221330
C        10.41860541387709   -0.14824572303796   -1.75049318782867
H        10.87195221813509   -0.09579844259884   -2.72885772370243
C        11.04884113220131    0.49477199672097   -0.66394660737447
H        11.97393022341657    1.02621420480618   -0.82982241540537
C        10.49679287149005    0.44526927920603    0.57806875962172
H        10.99067598604411    0.94450839405040    1.41351286765395
C         8.69150736269298   -0.31420161250448    2.09572741305447
C         7.46061631239037   -1.59342662914053   -0.07372823660548
H         6.98369518295330   -2.08309899621630   -0.91118001844743
C         9.28263183942918   -0.24668039897616    0.82954954861878
C         8.64886773970520   -0.90180521840452   -0.27963370283236
C         6.87152041993874   -1.67220185812437    1.18303229966221
C         7.49989781389259   -1.01917490873652    2.29649782935970

