85
CSD_code = BIXTUY | q = 0 | S = 0 | Stoichiometry = C42H37Cl2IrP2S | MND = 6
Ir       -0.86240354329938    4.06615435889943    1.89222200225336
S        -1.43260201290293    1.82830643361227   -0.28696651596868
P        -3.03113583543078    3.86050066213048    2.74320774249067
Cl       -0.42325200915492    4.83102598728182    4.15549068403288
C        -1.42070388042886    3.51545871750767    0.01785351931988
P         1.42208488117490    3.86138901343141    1.50193293416832
Cl       -0.45568476281450    1.66593970107675    2.35397826613343
C        -1.84314763092886    4.38121831305513   -0.99309636047335
H        -2.19821873071062    3.96811979874962   -1.92838034128625
C        -1.83536841024402    5.75501233820957   -0.91567750716186
H        -2.18262446819276    6.30004892312463   -1.78540676619736
C        -1.38375983556748    6.51358425649317    0.17865761158868
H        -1.38548538112796    7.59107794086668    0.04797037576152
C        -0.94944371546751    5.98197465333966    1.34949352618197
H        -0.58712678292583    6.70790217550373    2.07620882534110
C        -1.98414835617852    1.58566331368746   -2.01982572019153
H        -1.93400544977394    0.51196161747814   -2.16739890392682
H        -1.30425387017653    2.08177520025328   -2.70442305894285
H        -3.00700276757999    1.92387859888797   -2.14641731987805
C        -3.23091549609000    3.35950703041135    4.48583330683511
C        -2.37312265747469    2.41369225428708    5.04025131574415
H        -1.58057956649791    1.98938144580708    4.44129953725472
C        -2.52542479656503    2.02562181029995    6.35833436423914
H        -1.85000757302273    1.29625131045316    6.78091135493591
C        -3.53191727236523    2.57446521489069    7.13511230915550
H        -3.64496907193401    2.27706923394218    8.16754458407954
C        -4.39044703937185    3.51136012831806    6.58577516963155
H        -5.17668631798288    3.94501685693976    7.18694942694309
C        -4.24417305488230    3.90584673105676    5.26784499587358
H        -4.91652450949746    4.64410416550863    4.85529151518744
C        -4.00970253118011    2.61761254629101    1.84381927925478
C        -4.20628784963962    1.34127124595644    2.35536584667829
H        -3.83156875972042    1.09180336677509    3.33721137660554
C        -4.87132836965493    0.38790196359904    1.60353305016736
H        -5.01526940294682   -0.60437420065483    2.00472674067459
C        -5.34668917771577    0.70027900607019    0.34206789068270
H        -5.86724837443168   -0.04478236105152   -0.24158331115361
C        -5.14548765418856    1.97027255807892   -0.17677538008414
H        -5.51523762865263    2.21669327520193   -1.16269429245752
C        -4.46772018374763    2.92011835138149    0.56240222416404
H        -4.28255077239473    3.90461253657145    0.15219077517322
C        -4.05531077466006    5.36908773317140    2.68394725212208
C        -5.37748953622263    5.39419463930042    2.25451902082380
H        -5.86059918579562    4.48778756458611    1.91895955788076
C        -6.08771059620421    6.58253351461732    2.27121169313704
H        -7.11368995070146    6.59515250371406    1.93237134981764
C        -5.49321451993935    7.74716140648128    2.72625008403259
H        -6.05262031201920    8.67108835243466    2.73453832547407
C        -4.18511782521164    7.72049986255118    3.18326303353945
H        -3.72410386892820    8.62219680744834    3.55826917601016
C        -3.47036150042372    6.53826709610358    3.16372673147810
H        -2.45777261501973    6.50279485583670    3.53776723640815
C         2.40844526830467    5.39322972168033    1.34641993252175
C         3.32497390583538    5.64166553892220    0.33233718718323
H         3.45996171806682    4.93194593140896   -0.47177332573540
C         4.07442087690975    6.80545617866138    0.34799269250464
H         4.78398990513171    6.99392603085782   -0.44505576317531
C         3.92277563980709    7.72182648621164    1.37447903728082
H         4.51039254234732    8.62825869484363    1.37969081375670
C         3.02304614253970    7.46897359526531    2.39759547501329
H         2.91009267959758    8.17571783468695    3.20649832063313
C         2.27189079883569    6.30920822869038    2.38670969815743
H         1.57584463629825    6.09645305535746    3.18683785605787
C         2.52409116554701    2.99964586443956    2.66920283352450
C         3.82138816786890    2.73185665000665    2.23468321552129
H         4.12360472368618    3.01022983160037    1.23348430065646
C         4.71815998355185    2.10753282123733    3.07915816303950
H         5.72018618005986    1.89418514407530    2.73529353831219
C         4.33347801403173    1.75728539557962    4.36434814580428
H         5.03651952427083    1.26670715403571    5.02188576109847
C         3.05244388596820    2.04155728309711    4.80281386734928
H         2.75226898716033    1.77792399811866    5.80613950890382
C         2.14700097948676    2.66437000695203    3.96081496380471
H         1.15153206550723    2.88753412635182    4.30874724333626
C         1.68032377260558    2.99629587578813   -0.07230708886895
C         1.98319763042102    1.64182639325701   -0.12358214992829
H         2.15234770922457    1.09512953224376    0.79256170738519
C         2.04381682309202    0.99361137059799   -1.34552017291812
H         2.27416406365049   -0.06092506785224   -1.38102308157450
C         1.79910466153466    1.68891271161627   -2.51712607639705
H         1.84724396680820    1.17990149175533   -3.46898517516209
C         1.47537933989736    3.03704143672701   -2.46849484413414
H         1.27098665561265    3.57928845981296   -3.38127002388353
C         1.40287887581904    3.68608401633394   -1.25121468489345
H         1.11828001748979    4.72946339762943   -1.19890040856262

