77
CSD_code = BOHKIU | q = 0 | S = 0 | Stoichiometry = C29H42AuClN2O2 | MND = 2
Au        1.55298451702315    5.64043779369973    2.20526719532125
Cl        0.00939190952463    5.64012070177887    0.57365572617991
O         2.08974696243400   -0.66585812346974    2.97433366890295
N         3.51189324846030    4.56312154838694    4.14672913647143
C         2.95426464078676    5.64125005573224    3.61596414886131
C         4.54842363193772    4.87550985171328    5.13048588778796
C         3.16172071115692    3.22776758126804    3.82005144549489
C         3.80809149187087    2.58801851752630    2.76394975165777
C         3.46354403524189    1.27811424034515    2.45997179031862
C         2.48820929819211    0.61487948132457    3.19113242574143
C         1.84089013828517    1.28030300207960    4.23014384542591
C         2.15907075624485    2.58466765499506    4.55373418456897
C         4.84429975930845    3.30332756374231    1.92864710586403
C         6.19052423448896    2.57642017761105    1.97147229167763
C         4.34775412827085    3.45816756271749    0.48963696692957
C         2.64548286450248   -1.37244289448745    1.89165611238586
C         1.39745210697294    3.30481298262660    5.64133815504245
C         1.48675865415579    2.55943626510369    6.97426006671988
C        -0.05918659964656    3.49286780643427    5.21193131494787
H         5.50582167354990    4.44968239490340    4.81564024549535
H         4.28697162228705    4.44879257292241    6.10325777387950
H         3.95831024112471    0.78801305131993    1.63801938292969
H         1.07128487215051    0.74661297161913    4.76306001226057
H         4.99015334228479    4.30954043099510    2.33295969399737
H         6.12012717916275    1.59697846022517    1.50621116012497
H         6.52234967416087    2.44189257132706    2.99953980394595
H         6.94290663471432    3.15213682666955    1.43680253250211
H         3.39032224205292    3.97607524378038    0.47682123790917
H         4.22041483900733    2.48957303856242    0.01377682799732
H         5.06203154122712    4.03596772274880   -0.09280472092041
H         3.72492797697576   -1.51165419863004    2.01305574347965
H         2.44584461043708   -0.86983945094557    0.94021512743438
H         2.15672221964370   -2.34534825318332    1.89305295993963
H         1.82928038747195    4.30075823723015    5.77927649563577
H         1.00076850211763    3.13664848348120    7.75791888809541
H         2.52582922623445    2.39807625027265    7.25588240887809
H         0.99726546391357    1.59186194255104    6.91132641464546
H        -0.55006014493152    2.53249528157241    5.08129805091632
H        -0.10517279857200    4.03319557289826    4.26800211621805
H        -0.60232763310828    4.06085119293503    5.96401366906617
O         2.08977672409550   11.94902694844486    2.97446260011693
N         3.51165530726865    6.71981674999931    4.14608375516292
C         4.54825611879787    6.40822840813764    5.13002105707462
C         3.16106565673524    8.05498332444508    3.81911584910503
C         3.80726804136861    8.69476736775054    2.76293531723172
C         3.46289701263722   10.00479100030238    2.45926146836012
C         2.48782300148918   10.66806841698966    3.19072952961963
C         1.84037887587175   10.00247432530808    4.22955489419364
C         2.15845749195841    8.69802704264361    4.55290749314602
C         4.84324674473216    7.97945611377977    1.92735292412300
C         6.18982120926529    8.70566807747431    1.97100194753169
C         4.34698177032930    7.82584327341031    0.48811566321631
C         2.64637903231789   12.65618849758341    1.89261210904346
C         1.39697003572190    7.97782597306450    5.64056474187247
C         1.48734200914040    8.72269204460849    6.97370383706239
C        -0.05997846070302    7.79062324502757    5.21185278792146
H         5.50555451672794    6.83407357467580    4.81489514684977
H         4.28671900633694    6.83547323834167    6.10253658819121
H         3.95764803910136   10.49497793007405    1.63734993364310
H         1.07088117208173   10.53615799328759    4.76263411640408
H         4.98845258717019    6.97288984506043    2.33101876379366
H         6.11995845412019    9.68552131385998    1.50652370173750
H         6.52152108142165    8.83922167206844    2.99923837182683
H         6.94203036403092    8.13002168447534    1.43601427179974
H         3.38930568270326    7.30842550616197    0.47469677268832
H         4.22027064143426    8.79481004193856    0.01284521253330
H         5.06111569003222    7.24807061629286   -0.09452809667394
H         3.72586726771499   12.79459084906004    2.01456019477974
H         2.44679538027042   12.15455940374719    0.94064643050270
H         2.15824749743794   13.62940856622840    1.89467447426993
H         1.82836620410900    6.98161129264945    5.77790471307649
H         1.00142688965080    8.14548383029107    7.75741075432465
H         2.52664077245820    8.88339465160866    7.25486861214952
H         0.99836000504354    9.69056220786333    6.91132126291743
H        -0.55048160298459    8.75126403154858    5.08180472284594
H        -0.10672073671113    7.25061985765958    4.26778360816703
H        -0.60298764428065    7.22264897175262    5.96403742466341

