57
CSD_code = BOKQUQ | q = 0 | S = 0 | Stoichiometry = C22H29AuBr3PS | MND = 4
Au        4.37991384948948   12.18902260911726    3.59984181477525
Br        5.46891768136539   10.08471106248347    4.17975707005755
Br        4.94726784612381   13.07989727824448    5.80719032579397
Br        3.78410829846806   11.28006284645032    1.41348399997452
S         3.33099663007634   14.30496292916967    3.06443331786554
P         1.32473864039700   14.11959662720524    2.94354878810724
C         3.25106122731903   17.70179053351393    2.35660393920788
H         3.97313581994236   17.03030844766868    2.82023131920100
H         3.79555451564664   18.46805205090335    1.80527294114926
C         2.38739505071967   16.87192597612429    1.33232430570109
H         2.36412766321277   17.40537471507906    0.38152518033644
H         2.87687106941583   15.91466210004168    1.16982029254953
C         0.98223418935521   16.70955822018600    1.82772386590147
C         0.55663442395415   15.76058444981198    2.77242081980092
C        -0.55733965537121   16.04020974727709    3.56426836325583
H        -0.83430113499177   15.37403581790796    4.36550320433955
C        -1.27501866719852   17.21995688419845    3.42433367773090
C        -1.04207669166787   17.96999090147857    2.27636970471544
H        -1.67206528324873   18.81597648708951    2.04773709823996
C         0.07192893805893   17.71566633571148    1.50547784571559
H         0.30660070937578   18.37971245844547    0.68680496872527
C        -2.11290377718145   17.76067568395316    4.54579895282140
H        -2.37062488083440   16.95309056383137    5.23144120201956
H        -3.03880060562762   18.18669463530659    4.15882728827537
C        -1.33375951302954   18.87952595693061    5.33465948116459
H        -1.79469905089485   19.84598431714748    5.13117917489877
H        -1.42340207384672   18.67660693844147    6.40201533298237
C         0.10786534125747   18.90891444857637    4.91380626684783
C         0.54532698960339   19.77974815029352    3.92268659895127
H        -0.05571547261503   20.63916090616770    3.66181280553391
C         1.67741216410783   19.48968731342239    3.18334651642333
H         1.95149319729528   20.12632591083840    2.35446928915097
C         2.38717828282778   18.31768077413966    3.41722135985154
C         2.10778703880619   17.61346678183763    4.58455264676676
H         2.72963292567265   16.77303813113467    4.85894480856208
C         0.98248831085249   17.90942157995913    5.32785825534199
H         0.72763284309790   17.30420640899068    6.18680434438332
C         0.73482118141662   13.15724225194613    1.46175046450941
H         1.13412981542757   12.14261317219187    1.56730392185474
C         1.29638645415199   13.75744488949707    0.17997009494164
H         0.92267472307998   14.76811585319461    0.02309461759913
H         0.99771402970446   13.14064202410388   -0.66411883504316
H         2.38410743249773   13.77073964876493    0.20329460848316
C        -0.78906235681403   13.12102145444980    1.44000460094376
H        -1.11731164965542   12.58383899703318    0.55285344430539
H        -1.20020033642914   14.12902076286372    1.39944446633140
H        -1.19715812784671   12.61079552341309    2.30964911867298
C         0.65006138994449   13.26912279540061    4.45883442442026
H        -0.43970574615549   13.36785715254388    4.39901642642436
C         0.98815538111294   11.78306795428245    4.46951079812845
H         0.58755842390837   11.32870674828293    5.37384967559467
H         2.06859636191126   11.62372246133877    4.48259873845732
H         0.57489173416360   11.25782118388175    3.61055544869386
C         1.17463282610269   13.97075419238878    5.70785407309545
H         2.24156618947754   13.79958214020567    5.83410576902835
H         0.67117304410296   13.58242243956304    6.59105535799511
H         1.01297238999046   15.04568137556530    5.65647561843540

