90
CSD_code = BOXKEG | q = 0 | S = 0 | Stoichiometry = C33H53ClP2Pd | MND = 4
Pd        3.11011924727815    2.19407042041359    0.12013564561019
C         5.46307409497148    6.62573481974656   -4.49316530756318
P         4.72157532676606    2.22422279553633   -1.46383355239958
C         4.07057649920241    4.76890110904801   -0.80727204415507
C         4.77826118190088    4.02215363183017   -1.76859377825961
C         5.24286749758795    4.60953665511895   -2.93414762122220
H         5.80324461503008    4.00594259934478   -3.62935263482378
C         4.96853232203842    5.94013547615361   -3.22914096423269
C         4.16391227107427    6.63660537045023   -2.33186118045785
H         3.86909779813271    7.65257812190506   -2.54990353163743
C         3.72937510566990    6.07410883972494   -1.14584798588682
H         3.10922894452726    6.66058823629317   -0.48370004621418
C         1.89373683762195    4.35343445504782    2.13416103945743
C         3.00981247984511    4.90665506667531    1.50669899119570
C         6.35312092220039    5.71800351566823   -5.34671876804076
H         5.80176410130172    4.85104529326302   -5.70394382168910
H         7.22343663641689    5.38333658081829   -4.78624942326863
H         6.70543433484404    6.26994815661139   -6.21585851222828
C         4.25552879316061    7.04862255383424   -5.34136864725491
H         4.59045709310608    7.52637519727566   -6.25977152748326
H         3.62161314218588    7.74912890570067   -4.80476017687150
H         3.65614785074138    6.17880840117523   -5.60288862184139
C         6.28181901056661    7.86389380225787   -4.10128239159404
H         6.65346631377549    8.36618806317012   -4.99202944834606
H         7.13292670652018    7.57346382960509   -3.48840002854201
H         5.68221216405178    8.57246944698168   -3.53670956756880
C         1.60860949367474    6.30230030345207    3.53378953184146
C         1.21442177621146    5.03338281731031    3.13929421691957
H         0.37910815009095    4.54663821371927    3.61543023586699
C         2.73583174168033    6.84471771085220    2.91646292376715
H         3.09693479845262    7.81746210404396    3.21628310202953
C         3.43164995310236    6.16148027582265    1.93948941258347
H         4.32781017871501    6.59911406485364    1.52170647580877
C         6.43038324999336    1.58900795204742   -1.09148800303986
H         6.38247283850392    0.50793400457179   -1.27260233883756
C         3.78329142902031    4.10925917471742    0.49623632830819
H         4.76225668062597    3.89591707738666    0.96659975379997
C        -0.34069652436305    6.36113460694320    5.16095827487447
H        -1.06309166791789    6.15937756083039    4.37300343835012
H        -0.82750940703521    6.98120519280357    5.91096767653595
H        -0.05784599678322    5.42430750034201    5.63574235244503
C         1.85228643547112    7.35286142817645    5.77578940565470
H         2.20719597955719    6.40940995561598    6.18583674091067
H         1.34877045390945    7.90535871198995    6.56627561698238
H         2.71500533508924    7.92951062553048    5.45381872175301
C         0.41619770937799    8.43134998246787    4.01911962340157
H         1.25425431264335    9.02516398975399    3.66509530406723
H        -0.11550117090613    9.00917165448438    4.77210696816899
H        -0.25553832685866    8.25624403822655    3.18097834387128
C         4.25484941572514    1.56443377671673   -3.13448583860839
H         4.89275265289965    2.01293819535066   -3.90604408027344
C         6.67454236351527    1.80836825352516    0.40195264164695
H         7.54518626490524    1.24882446227180    0.74050560957170
H         5.79908389115555    1.47032876792563    0.97578180214058
H         6.84616142843764    2.86478290348185    0.60971420433576
C         7.51933104733111    2.21141742084622   -1.95414259113553
H         7.34562479381156    2.00617900573141   -3.00874432816808
H         8.49158621375733    1.80082971729198   -1.68437223379104
H         7.55037825744727    3.29026010766189   -1.80908508799563
C         2.80416206006001    2.00315327824382   -3.33686520952290
H         2.42559724653768    1.66812605088219   -4.30119430355964
H         2.71555919765195    3.09087972260352   -3.28584265019023
H         2.18429537429929    1.55566030062284   -2.55093481272664
C         1.47121450254942    1.68432606143604    3.16202123035819
H         0.99101436646256    2.26598867165367    3.95913740925983
C        -0.16099701812224    2.70190152788278    0.79994782873919
H        -0.39913275570822    1.64949751449224    0.59382060907533
C         2.95352515440186    1.47877112985141    3.48668202201049
H         3.44425485292428    0.97976657514844    2.63714205120217
H         3.08222137073355    0.85816822590108    4.37180387064065
H         3.44446385722193    2.43969916047044    3.65805491292679
C         0.75648036209525    0.35347604905061    2.96174827038891
H        -0.31280225733897    0.49664596110892    2.81753323063991
H         0.90182328338690   -0.28623153951794    3.83103295546999
H         1.16085116887670   -0.15650238888632    2.08742042494842
C        -1.27109177155414    3.33618496588999    1.62689285853862
H        -2.22489472509751    3.22361713193960    1.11295478221561
H        -1.08391897156132    4.39942464764737    1.76391117527559
H        -1.35483296225991    2.86345804393776    2.60398370620606
C         0.05422462317064    3.42707695782936   -0.53067723814225
H         0.89681530870100    2.96679061235950   -1.07225340709740
H         0.29059996041103    4.47821452070887   -0.35645568032223
H        -0.83408532164581    3.36891634899839   -1.15715845347313
C         4.36920340811117    0.04440123764252   -3.17699033091954
H         3.90776840056086   -0.33775118606887   -4.08635958507274
H         3.84907868713155   -0.39033829013157   -2.32343358111314
H         5.40793750829679   -0.28034069380571   -3.16323197251116
Cl        2.38246641992052    0.00323503516226   -0.19639783400098
P         1.51339737082285    2.66351465322356    1.59190929477070
C         0.88566625719824    7.09524681331770    4.61152812751810

