40
CSD_code = BOYBUM | q = 0 | S = 0 | Stoichiometry = C18H15CoIN2O2P | MND = 4
Co        5.11866923615663    1.03737519273206   -4.44088329108518
I         3.11548486714159   -0.51359440546106   -3.99143984916067
N         5.89983614950578    0.94326897132899   -5.90593072503740
N         4.49864701248282    2.43524320973470   -3.98497883699229
O         6.14492364464190   -0.16848935449344   -5.51636662569074
O         4.02196918886799    3.17773718564790   -3.20833024881662
P         6.32309594183908    0.59706344001169   -2.46471451213125
C         7.48942329315470   -0.75551445066959   -2.78892642075666
C         8.86573497594644   -0.56194739238508   -2.82711691571347
C         9.69645296360156   -1.62322318914368   -3.14111611017947
C         9.16131516633464   -2.86834058657796   -3.42740176499944
C         7.78805773821177   -3.05940197415839   -3.40159586405845
C         6.95031049222383   -2.00666435794658   -3.09025812240581
C         7.37300335680537    1.94984883235038   -1.84603195893117
C         7.80462466061149    2.91732887451790   -2.74866241055218
C         8.61971333534695    3.94983789384269   -2.32292620642108
C         9.00023331162098    4.02398626275546   -0.99271057585783
C         8.56807994432418    3.06470928974090   -0.09056510577131
C         7.75595650371145    2.02733119753754   -0.51095014005307
C         5.42130659808768    0.07294264434926   -0.97586931810025
C         4.28730061210897    0.80150034056965   -0.62430888004751
C         3.56182909694370    0.45173757702493    0.49831401313608
C         3.96362314750198   -0.62302271727229    1.27480515577538
C         5.09436549087832   -1.34487720367561    0.93026698668705
C         5.82527731271173   -1.00395087498182   -0.19363782541265
H         9.28393177033227    0.41141490501423   -2.61000507024794
H        10.76582566876929   -1.47402068416106   -3.16703441432039
H         9.81514755212027   -3.69026744778145   -3.67778758422281
H         7.36946353431902   -4.02725739079885   -3.63246475416133
H         5.87743981480753   -2.14889038738649   -3.07771656582019
H         7.49609676980514    2.85687014275611   -3.78737090854315
H         8.95269071954013    4.69843080937682   -3.02610612088508
H         9.63108625591455    4.83342577166411   -0.65759342126151
H         8.86348146612848    3.12559833142934    0.94629482740847
H         7.41621664033556    1.27985731510212    0.19193614131579
H         3.96834693130824    1.63637914831615   -1.23300798195206
H         2.67749663802169    1.01175598107516    0.76079541269450
H         3.39193979909593   -0.90191439503235    2.14699636088084
H         5.40814535350052   -2.18248551464227    1.53553967004779
H         6.70355704525449   -1.57408099032248   -0.46254003835206

