66
CSD_code = BUJLUN | q = 0 | S = 0 | Stoichiometry = C29H31Cl2N3Zn | MND = 5
Zn        4.15771537755391    2.36727649527026   21.06996797376670
Cl        3.22061459472086    3.64859205871254   19.48360236594417
Cl        4.52140436856156    0.15114153847252   21.03392587495831
N         4.76113931034231    3.35300080019747   22.82759233528286
N         6.21356444234250    3.05370076203160   20.66408248505442
N         2.43202448539664    2.22678831952860   22.43280919048897
C         3.95106232701305    3.34669211899078   23.87844878213598
C         4.36148896867407    3.90394693000499   25.09102380056463
H         3.71391812026134    3.91169127961425   25.95152905386542
C         5.63233853093724    4.44571584424435   25.17469934442811
H         5.97861526199221    4.87123631550984   26.10505386352629
C         6.45975410705231    4.43654024003087   24.06525928422711
H         7.45571771904481    4.84190109412902   24.12756420224731
C         5.97826114271445    3.87749276449939   22.88036222763536
C         6.74764389953197    3.81160186544683   21.63041755553403
C         7.94219837641822    4.49351834628166   21.43550751886284
H         8.36063252448985    5.11700065171643   22.20863624772202
C         8.58780204426848    4.38670540388382   20.21072910702421
H         9.50948393911175    4.92349184678222   20.03450439634140
C         8.03710597073394    3.59736823873462   19.21992066045280
C         6.82689291368869    2.93258579662077   19.50505753152471
C         2.64382821616490    2.71039973332608   23.66381013929053
C         1.68308259962814    2.58778595382774   24.66027289535226
H         1.84701293978384    2.98855839008661   25.64695864732348
C         0.49845420641784    1.92073531475384   24.37820969423018
H        -0.25155723320330    1.79821665083861   25.14709723396163
C         0.29549980607338    1.40368246508038   23.11357385418260
C         1.30625437348381    1.60451898447594   22.15117482468271
C         8.64586175548213    3.43574585131221   17.85541735629844
H         9.64943347280478    3.00961874723258   17.95479818615211
H         8.75851723618387    4.41526890511389   17.38287459450083
C         7.77602753329870    2.51377008803746   17.00469011976810
H         8.19784595405496    2.36890280461307   16.00928712298750
C         7.44919906692363    1.27369478914709   17.84931961269986
H         7.12366890307041    0.41761940495763   17.26798541732782
H         8.20559994301128    0.95368233436674   18.56449539343476
C         6.27033594778032    2.08438661868877   18.42362303477418
H         5.35703035063676    1.57157578183424   18.71293729557183
C         6.27911475609900    2.90721130769358   17.10282461873908
C         5.88725525971647    4.37528871742047   17.18379960019955
H         4.85541530614112    4.44271672768991   17.52348244536666
H         5.96485020788216    4.83702154972500   16.20094979118329
H         6.49853591650201    4.94374013778388   17.87862966263501
C         5.41987126785803    2.24536094460137   16.03261910848464
H         5.62223310866016    1.18281001715887   15.94015165340142
H         5.59938610211285    2.71422021295281   15.06653738210687
H         4.37098561581729    2.37355330633773   16.28945626713828
C        -0.92451321815485    0.61546779465920   22.72762236636504
H        -1.81696390756657    1.23455311743099   22.86362511942878
H        -1.02817965581461   -0.24762289361408   23.39109357732954
C        -0.81779449466822    0.17538952171424   21.26984708570857
H        -1.69288887747295   -0.39581819848007   20.95710471114256
C        -0.41161044417329    1.40522582132926   20.44497043982384
H        -0.77085647935054    2.37157961076881   20.79566180465904
H        -0.61715469516325    1.31246923875382   19.38386258467554
C         1.04610735088316    1.05275073224884   20.79953518973336
H         1.83823490512301    1.27241279571624   20.08918100758062
C         0.58004530035698   -0.42315617451596   20.96398957191164
C         0.62887051028335   -1.17131023575067   19.63780737495172
H         0.16999580252571   -0.60936574145414   18.83022347606292
H         0.11298957695505   -2.12585483403579   19.72801172075475
H         1.66666901792584   -1.36265160942086   19.37542472586610
C         1.28879292039336   -1.27017595632176   22.01133636834284
H         0.86047717850986   -2.27082971761640   22.03428717446614
H         1.23229890585391   -0.85077711800529   23.01161933591472
H         2.34145926631566   -1.34486060315574   21.74442661188856

