60
CSD_code = BUNCEU | q = 0 | S = 0 | Stoichiometry = C25H29Cl2N3Ti | MND = 8
Ti        0.21758503103126    2.64246191572394   31.44883882084856
Cl        2.12304502114429    2.46022802102584   32.52164005331610
Cl        0.94779588759764    1.52565619494762   29.70465444048833
N        -0.82922365030162    1.48271524824286   32.28667515549327
N        -2.93605970003838    0.42477450122233   32.23214131599327
N        -2.09984772419899    1.00025168898103   34.22189674556063
C         0.29460515973111    4.56727464060715   30.20612533812616
C        -1.02713742559765    4.04061028679610   30.12571204854478
C        -1.59925383758399    4.08312582765350   31.42965604658466
C        -0.61564959931179    4.60244179458800   32.31955022391753
C         0.54602756018618    4.91743198845840   31.55674685524422
C         1.20793732734440    4.82287989595189   29.04301044054188
C        -1.72823218406453    3.63741788428558   28.86102115217763
C        -3.04259528549171    3.82860652796864   31.75940459914221
C        -0.78200940725978    4.90983022973059   33.78018585629126
C         1.74445178392986    5.64938082988204   32.08449243601147
C        -1.84201770815653    1.00334168052613   32.85507336536741
C        -3.94742954936615    0.01952650107892   33.18337572210483
C        -3.48194491935727    0.67011873402652   34.48926626468699
C        -3.05367870742952    0.27559624769079   30.84800756909393
C        -1.92513571576078   -0.02161959111587   30.08393627032413
C        -2.02000569885154   -0.10650303733256   28.70722414681623
C        -3.23865375826752    0.07775218153430   28.07487705588947
C        -4.36826383479062    0.33640118878437   28.83257240528149
C        -4.28239760565307    0.43959585252425   30.20915038619241
C        -1.25777948710183    1.56656346284789   35.17737083693009
C         0.12590307878849    1.50396807625291   35.00682660824614
C         0.96742770913952    2.09063082779897   35.93249466583390
C         0.45053038019190    2.72268621288101   37.05223791219665
C        -0.91927344639422    2.74904496547151   37.24653134248409
C        -1.77309486939914    2.17823156836744   36.31971159644240
H         2.25335846601679    4.73524847576250   29.33919023325522
H         1.04832578347505    5.83136198049935   28.65270475513223
H         1.02151838903845    4.11224040508120   28.23915078091578
H        -2.58651832654893    3.00108558142500   29.07418617588232
H        -1.05353699474629    3.08368285068714   28.20714280349826
H        -2.07904888850666    4.52196238253176   28.32250756493591
H        -3.16086468154331    3.52527586456790   32.79892164339320
H        -3.46129958095812    3.05257472839757   31.12001736380490
H        -3.62183500318069    4.74346367828497   31.60653271959369
H        -1.69038397001982    4.46085591168379   34.17759495888770
H        -0.83767211818092    5.99002660509002   33.93553339351430
H         0.06347705054219    4.52664486710137   34.35496552090594
H         1.97943720209726    5.33005479324126   33.09947264367631
H         1.54561650206362    6.72459921121860   32.10039431002470
H         2.61977298018996    5.47433034286367   31.46099073045171
H        -3.97265834291259   -1.07544317792069   33.25949748539757
H        -4.94197195507020    0.36649711352930   32.89523090343751
H        -4.07082483771213    1.57369735950738   34.70229390158850
H        -3.55767772033694   -0.00469998659709   35.34575747839033
H        -0.97904644903227   -0.20310665614435   30.57542974687772
H        -1.13280312006327   -0.32334921129340   28.13259291187073
H        -3.31141965689028    0.01150357851155   27.00007880599983
H        -5.32597409287301    0.46882325101320   28.35052931725708
H        -5.17368309124850    0.65740787030257   30.77861133423255
H         0.53726038659353    0.98088488188767   34.15459693195724
H         2.03408628573803    2.04427027539973   35.77428173742108
H         1.10982534423920    3.17987630742561   37.77428533096901
H        -1.33302784478277    3.22249081227838   38.12499980734584
H        -2.83805654007894    2.21631755614068   36.49130103321671

