91
CSD_code = BUXHEJ | q = 0 | S = 0 | Stoichiometry = C47H39ClOP2Pd | MND = 4
Pd       11.41710591813793   15.87070437601568    1.05341637086891
Cl       13.23113784245444   15.82737596794910   -0.40842632714040
P        11.43921592923458   18.08328893781271    0.69540551582877
P        11.40412214912137   13.62145080094576    1.22106302717577
O         7.39281797331074   15.66099959472428    4.32643117158749
C         9.83970216883036   15.97536590760927    2.21716926081995
C         9.74776119335346   15.92460440099610    3.58231091732358
C         8.28820124063229   15.86536793816722    3.54631703919319
C         8.33021264967334   16.02958327330061    2.00997582892026
C        10.75552143460437   15.83669053134257    4.61658858582475
C        12.10981258982516   15.93091549924688    4.28327297142321
C        13.08220551593754   15.80495336888308    5.25509323299311
C        12.73662356140473   15.58923783943188    6.58392736560045
C        11.38740690651833   15.50706924509873    6.91552012384509
C        10.40775268748218   15.62788582868310    5.95153292942364
C        13.78584281535624   15.46124413409031    7.64665089311898
C        11.11231638563082   18.23732985979623   -1.08043751744555
C        10.04820434788537   17.45767200498704   -1.53763817619375
C         9.74331608112083   17.42261166515092   -2.88404569382647
C        10.50723644527581   18.15484411792536   -3.78130636895309
C        11.57110801833005   18.91709307570162   -3.33028374819884
C        11.88032543325273   18.96090741977531   -1.98063402863466
C        10.15880739826379   19.10830101240682    1.48480183727550
C         9.15905273568834   19.78167744467074    0.79598751322254
C         8.19100889834512   20.47907749061363    1.49910390181785
C         8.21411230943273   20.50182540509815    2.88323387468094
C         9.21376078720620   19.83304617788064    3.57362573016917
C        10.18269570601415   19.13885199254120    2.87739770169398
C        12.92800875199313   19.04154778331426    1.07623060117390
C        14.03348409990750   18.40082317568312    1.62143420960791
C        15.16432282139906   19.13018824684601    1.94222069061854
C        15.19033725406181   20.49756052803922    1.72432301143738
C        14.08250367665914   21.14140690391265    1.19379314324606
C        12.94805661328476   20.41941253535204    0.87515241209792
C        11.38074801908695   12.95276914623062   -0.46712225198732
C        11.91996206055085   11.72625824998484   -0.83144297301266
C        11.85489597816165   11.31792309570516   -2.15242647059709
C        11.25691283428427   12.12539264199448   -3.10611519163091
C        10.72122566866430   13.35194977865689   -2.74516702936235
C        10.78482778787705   13.76600669341458   -1.42888082073272
C        12.82798775038803   12.87077318974448    2.05629918993059
C        13.96195255755742   13.65322570463032    2.24721675608398
C        15.06768482601663   13.12497653731045    2.88810327602511
C        15.04468477761435   11.81661268588141    3.34180154887831
C        13.91523902561037   11.03484135841197    3.15503219094703
C        12.80546483612166   11.55696871675970    2.51702535711424
C         9.98764913234575   12.82480159043182    2.03147409140791
C         8.88486739999279   12.38574710886260    1.30798200834906
C         7.76588352426096   11.91473787583217    1.97238921055286
C         7.73479707348704   11.89439394457270    3.35655250941571
C         8.83060603231242   12.33559516562846    4.08144802722663
C         9.95256960249373   12.80031019229843    3.42395645270832
H         7.94385167798345   16.98442167536879    1.64599928563863
H         7.88358818292536   15.20932098388509    1.44168493098667
H        12.39823033632178   16.11548300976796    3.23824474377028
H        14.12609835405404   15.87428166472176    4.98140861646249
H        11.10723002566449   15.34307584746376    7.94679085356210
H         9.36316159478313   15.55549186774541    6.21401003630846
H        14.77870412009361   15.39528487248560    7.20834122041243
H        13.61117206661122   14.57398187511284    8.25340616539310
H        13.75890149536735   16.32662519574434    8.30934008272973
H         9.46183082768609   16.88657538873957   -0.81334900897034
H         8.91890979963515   16.82072219286410   -3.23918197958642
H        10.27794462298757   18.12083289332432   -4.83625776764621
H        12.17202438741739   19.47409635016853   -4.03418965822791
H        12.72553624283337   19.53685915332402   -1.63183343548638
H         9.13562204714766   19.75902140218028   -0.28542855079859
H         7.41275992660899   21.00222065466989    0.96246206120314
H         7.45009734230625   21.03825412404530    3.42581798589220
H         9.23002103734073   19.84625950103490    4.65307681164970
H        10.96549313958186   18.60449752244918    3.40322185265463
H        14.00475655696352   17.32634484515706    1.76941716045629
H        16.02679052464933   18.63298468411777    2.36085528236911
H        16.07419426727609   21.06706138154830    1.97170617356624
H        14.10391492288157   22.20938939488392    1.03191363750957
H        12.07342946121101   20.91653836649601    0.47606335420767
H        12.40084241095015   11.10360160965174   -0.09040154200892
H        12.28018885656726   10.36763647460408   -2.44053528970130
H        11.21779353625559   11.80264604871903   -4.13614792049124
H        10.26884041626856   13.98786069882198   -3.49206848464738
H        10.38945408252497   14.74069451199588   -1.12984641447046
H        13.97303513234985   14.67109875868457    1.86904018856666
H        15.94896842996721   13.73216741655624    3.03377537167842
H        15.90676131273165   11.40291789094046    3.84424754199186
H        13.89904412469002   10.01485128280230    3.51101204290496
H        11.91647736972988   10.95401554922629    2.38728686539341
H         8.90550631307630   12.41323586245494    0.22607371485145
H         6.91172866069590   11.57142344445593    1.40675838491357
H         6.85413393422399   11.54123180413831    3.87128659660738
H         8.80545562215702   12.32885724284734    5.16057519575783
H        10.80914761035813   13.15213839606544    3.98419001153902

