79
CSD_code = CAFNON | q = 0 | S = 0 | Stoichiometry = C34H42Cl2Zr | MND = 12
Zr        3.15337465569762    8.47672573000981    4.33329331250384
Cl        2.87166543659018    6.97070748270287    6.10758703328156
Cl        2.46193908066281    6.80561603237375    2.83826202781979
C         0.87044329435753    9.04652601243558    4.72921731288310
C         1.60996326827084    9.88293117143709    5.61489967346476
C         2.35482875987698   10.81229747795300    4.85452509915785
H         2.88201312936881   11.66636573996878    5.25897424719204
C         2.33134236410271   11.41899127142088    2.34020150442490
C         1.77744087012929   11.04099602547409    1.14048246303031
H         1.98924131505109   11.61608804877638    0.25036131497325
C         0.89552438602912    9.95468345949750    1.04290405208329
H         0.47062801501770    9.72920101045236    0.07554423596396
C         0.50688427782548    9.20788407514376    2.13203880971492
C         1.08332678778794    9.53442796110133    3.38809400479207
C         2.01904781074364   10.63660758396412    3.47673061315591
C        -0.08871292743988    7.97181939542728    5.17372435087729
H         0.18293295664519    7.64920088448329    6.18641565869231
H         0.00489376912926    7.09761663125027    4.52075301492551
C        -1.50794410780022    8.48178675406889    5.18230477510853
H        -1.59608389623073    9.56101303858565    5.20915634384151
C        -2.61303119696435    7.74639098137573    5.17048862841177
C        -2.63041918654263    6.24756522403569    5.15051393306611
H        -1.63260767724796    5.82698581643888    5.08550070610284
H        -3.21853381836449    5.89146418281441    4.30490106928622
H        -3.10115965778684    5.87268889796985    6.05913982760052
C        -3.97396106468633    8.37982995117495    5.17986475876371
H        -3.90515236401972    9.46432089996157    5.20197677888200
H        -4.53921636139725    8.04784789848818    6.05032301282438
H        -4.53336212391063    8.08447513380023    4.29225261723989
C         1.54526397420339    9.85173570878567    7.11743653892429
H         0.50592700136799    9.85473429539946    7.44708143783980
H         2.03811730910291   10.72851537605823    7.53606313760074
H         2.02539447775364    8.95693605614342    7.52209598500473
C         3.15204729219268   12.67078020651110    2.46638632469952
H         3.26078190792466   13.15199109835604    1.49749996605157
H         4.14690559390387   12.47123209065578    2.86313545306331
H         2.66055065338036   13.36984357967093    3.14338341875374
C        -0.52800774807187    8.13457141576572    1.98016525682910
H        -0.94314792565297    8.15451819050739    0.97539428251388
H        -1.33361957376664    8.27488158795153    2.69843655427050
H        -0.08425110425022    7.15408676349594    2.14643549834285
C         5.33596193470121    7.64515577079994    3.38058347453464
C         5.08176669434565    8.96331756739357    2.92983762491122
C         5.09052829302724    9.84842328528098    4.04342197400639
H         5.13196820946351   10.92772398880042    3.98116068678030
C         5.58263218322191    9.45530747665518    6.56300169612438
C         5.92639656576336    8.46869997563363    7.45527011189351
H         6.08432603948193    8.72172658722470    8.49383826975215
C         6.08591941077213    7.13289366324863    7.05814413738934
H         6.35112547434897    6.40463792546539    7.81045151310116
C         5.91002700038590    6.71717219092624    5.75867909866364
C         5.56358514894190    7.69909000236165    4.79667674882728
C         5.39756310809491    9.07741139813558    5.21107877037640
C         5.54627172185750    6.46699412566457    2.46700342526050
H         5.08439267234484    6.67856517677773    1.49584864341694
H         5.05236724282875    5.57965983413311    2.86823956172582
C         7.01924801515098    6.20763939276402    2.27251649600866
H         7.65706767435301    7.05635349447023    2.48574498926638
C         7.57428169133520    5.06980406227726    1.87393628414237
C         6.80594312336359    3.82656318496915    1.53696892993810
H         5.73387402739549    3.99198039027853    1.54886326877055
H         7.04631200558464    3.03491225780383    2.24734350176377
H         7.08914137028306    3.47437718305017    0.54575954474638
C         9.06231801137931    4.93307763748317    1.73095729891637
H         9.32387053522421    4.69986157540521    0.69894194374901
H         9.42659222910518    4.11719933155968    2.35497348808775
H         9.57278008036268    5.84771684088772    2.02094233952937
C         4.84898967052221    9.35531299737081    1.49539326704872
H         4.79299957844410   10.43771654143529    1.39519556869936
H         3.91342892503926    8.92346275561906    1.12003071393110
H         5.66395038589741    8.99598011882642    0.86554250709498
C         5.44454317523111   10.89090861539377    6.98274202246971
H         4.40391222640427   11.21258261938100    6.92691534302450
H         6.03704961374224   11.53804349231566    6.33630324001878
H         5.78564895484691   11.02054386263709    8.00667249486105
C         6.04453573405647    5.26937304581681    5.39709052138835
H         6.37788105500138    4.69600577349270    6.25866245276109
H         6.75577064116077    5.13389219975695    4.58444145815980
H         5.07576192356532    4.87833251654737    5.08138155488992

