26
CSD_code = CAGNUU | q = 0 | S = 0 | Stoichiometry = C10H11Cl2NPdS | MND = 4
Pd        9.49072765829990    1.19601157687373   15.52916532342743
Cl        9.32925938031200   -0.78290454823106   16.46869597191998
Cl        7.99853511388070    3.12490386450158   10.60409528365097
S        10.78636425551105    2.25572384833276   17.38671596010049
N         9.56228901762754    3.00677455416656   14.70716071732269
C         8.57983614355385    0.74743873509371   13.81415821048714
C         8.06209806792725   -0.45368068385073   13.35450013609036
H         8.06590763813620   -1.32476812776427   13.99572984835828
C         7.53602204860072   -0.54643764856970   12.07245641444969
H         7.13702668430038   -1.48740725227895   11.72342132745402
C         7.51503451593065    0.55135442207818   11.22464298065375
H         7.10569954535255    0.47096214172832   10.22961290902372
C         8.02649584385360    1.75621286093126   11.66525502137242
C         8.56320613603744    1.87549898566992   12.95112696640544
C         9.09158161992217    3.08654461858016   13.51242222853336
H         9.06534341702072    4.02891767776532   12.96695276273037
C        10.00703001390221    4.16365139014704   15.44033750105238
H         9.14807009491150    4.57397927628879   15.99177646865638
H        10.37410230023057    4.94898451220830   14.76314907503469
C        11.11147324689070    3.79249735879038   16.43034341918469
H        11.28149180741134    4.60190717651242   17.14135999636131
H        12.04188797622731    3.57744441801909   15.90197420520835
C         9.20331732359348    2.65810566024067   18.20508851176703
H         9.28361207993886    3.62830755399232   18.68888844356978
H         9.05614833905106    1.88204062035817   18.95285192088829
H         8.37063973157293    2.63293700840732   17.48891839629664

