36
CSD_code = CAMCIF | q = 1 | S = 0 | Stoichiometry = C14H16ClN2PdS2(1+) | MND = 5
Pd       -0.03263166176620    8.12224853672349    8.67288627053811
Cl       -0.29773359158982    7.32664207260592    6.56439792578570
S         0.03621872923315    8.74974025096662   10.98968567847512
S         2.54306621844615    9.30402651964640    8.48693876553153
N        -1.07668897944153    9.81668996927864    8.38995003916536
N         1.03792889646308    6.50435690677936    8.97388823107992
C        -1.16742175821173   10.36919873263624    7.17867004157089
H        -0.82059539247131    9.76525219468610    6.34712006218578
C        -1.68613916675887   11.63699497987774    6.97862743905664
H        -1.74672863338242   12.03887555096472    5.98092937609950
C        -2.11540391841673   12.36724316937439    8.07523659562006
H        -2.52091671681574   13.35967284818478    7.95889882936526
C        -2.00868818187493   11.79692038752888    9.33361452581094
H        -2.33046944638241   12.33345394197460   10.21220949197750
C        -1.48992647501093   10.51463480860136    9.45905032036415
C         0.40373638921152    5.44587420387967    9.47914365187386
H        -0.67087088005564    5.54887652394131    9.62796176722529
C         1.06261546533154    4.27047851150583    9.78564285381573
H         0.51696848707320    3.43015467664080   10.18167558842060
C         2.43230657041460    4.20420269553402    9.56996915762406
H         2.98417712172304    3.30744529684392    9.80275093076368
C         3.07959274235270    5.30591746884936    9.03943362107306
H         4.13991057419935    5.27880276259766    8.84428737797109
C         2.34984810957984    6.45194863432180    8.72936990425947
C        -1.40320664973901    9.86466474871025   10.80798743043901
H        -2.26542778420387    9.20760753015085   10.96531522522922
H        -1.37487114000745   10.60131123286049   11.61166836341969
C         1.44643149343996    9.93114932047301   10.96576516106675
H         1.13568907735794   10.82507773677585   10.42277161360358
H         1.65238496308569   10.18596800336456   12.00650274427927
C         2.68498813222506    9.32382062860735   10.32449900691721
H         2.85507388372510    8.30453752126166   10.67131738693931
H         3.55181444185226    9.93785293835945   10.57015852952209
C         3.03680737240867    7.59406768426998    8.04092439111169
H         2.79427420313876    7.55355917934184    6.97226309005396
H         4.11758750486491    7.51903183188488    8.16288861176660

