61
CSD_code = CATDEG | q = 0 | S = 0 | Stoichiometry = C20H34Cl2N2O2Pd | MND = 4
Pd        0.95483691208506    0.67618710030766    0.92204572107805
Cl        0.01128973987833    1.60698919732419    2.82745350285884
Cl        2.25385219360242   -0.36543971127594   -0.69427471624612
N         0.22287380064122   -1.02440981384575    1.52894854104357
N         2.01753574864673    2.27495963234603    0.58531681023485
O         0.98193861118343   -1.32937245616208    2.67065469088880
O         3.28595793381202    1.94805777982296    1.09231707690413
H         0.95692228615941   -0.50126700563186    3.20431422114128
H         3.48380342447308    1.06810056831449    0.69542478302340
C        -1.41217166278794   -1.86411496268315   -0.11245864158866
C        -0.42050826784337   -1.98488685982777    1.01190176321718
C        -0.41543127719799   -3.41453192146255    1.46227763142557
C        -1.46551757943801   -4.02772993363575    0.53207821572617
C        -2.82107062467883   -3.49927437896615    1.01950454276935
C        -2.76727597473952   -2.01164200861025    0.62801610516676
C        -1.24114980813143   -3.25068811430170   -0.78614361155984
C         0.15192028640761   -3.44471978021923   -1.38742727067230
C        -2.26699961815712   -3.56627474170249   -1.87080537978693
C        -1.31607502499950   -0.61093328283325   -0.95618744179802
C         0.56788194093259    4.07389754854685   -0.27011889810393
C         1.78734735365980    3.50690550386199    0.40325302936078
C         2.70453983643511    4.64949599809187    0.71943903307465
C         1.91223479656871    5.83573339886719    0.16317729226534
C         1.99485970793780    5.71930416744256   -1.36445946199991
C         1.12227207041693    4.48607142243307   -1.65921886453068
C         0.44946676997157    5.43439704108672    0.46515451937991
C         0.14934746077651    5.27396840963976    1.95637956850524
C        -0.58645856562159    6.38972851515830   -0.12029831494081
C        -0.63802472918890    3.16190012851277   -0.34585244095688
H         0.57795395966471   -3.84411853248662    1.32649842809891
H        -0.66165541958172   -3.50173057851413    2.52203762937613
H        -1.41158482026642   -5.11199724026118    0.45621011635563
H        -2.93506297748303   -3.63689843124024    2.09432401979960
H        -3.64703864637010   -4.01736022028544    0.53462519811866
H        -3.58195874514900   -1.73416023572277   -0.03934291281997
H        -2.80787112490377   -1.35011546483208    1.49329691202893
H         0.92939943206575   -2.97187373429380   -0.79479863890149
H         0.19294010483273   -3.00476022166456   -2.38106396898234
H         0.37843455520369   -4.50503460518587   -1.47851761475467
H        -3.29045989650791   -3.43222528252853   -1.53930769732682
H        -2.14497682312969   -4.59914380847366   -2.19041395041170
H        -2.10330087300659   -2.92564004620453   -2.73428579528149
H        -0.34325085820530   -0.55371284004955   -1.44657846714239
H        -1.46048116222194    0.26664242906141   -0.31161904652157
H        -2.09080379683226   -0.61029069843375   -1.71960042971433
H         2.86474538440540    4.71082708001697    1.79665676512727
H         3.68367944903011    4.51811089738217    0.25541641223733
H         2.22720774865515    6.80139543226873    0.55381381194743
H         1.61143034438326    6.61422974039368   -1.85217471717665
H         3.02401598346928    5.58252164808401   -1.69505464842144
H         1.69007175664751    3.66960736106271   -2.10528892231034
H         0.29622697927638    4.71954645445275   -2.32943935015324
H         0.64295120876860    4.40868962765159    2.38859612221426
H        -0.91940524235466    5.14369753159307    2.10914480862637
H         0.46197844325802    6.16252129701913    2.50097474302561
H        -0.46838954554932    6.54249935380646   -1.18708280866853
H        -0.50347999279080    7.35570170173503    0.37349304493688
H        -1.58816222492108    6.00580229061522    0.05855561001707
H        -1.45210338083829    3.65639643406207   -0.87099383210330
H        -0.97982478682832    2.89589723187761    0.65560298922193
H        -0.36572277356680    2.25376398859844   -0.90039581639364

