15
CSD_code = CAWZUV | q = 0 | S = 0 | Stoichiometry = C5H4ClN2O2Rh | MND = 4
Rh        7.19310313828702    0.77471500493094    7.58488537661469
Cl        9.23724848813967    0.51300341400937    8.40795280306596
O         8.50618485001976    0.68462844899502    4.91057493983064
O         4.47976650913891    1.11776500021416    6.37490307957663
N         6.49652948915335    0.81415653173956    9.51075628756606
N         7.33346234490125    0.69358614900597   10.54256795486250
C         7.96449153472206    0.72333470076469    5.91245565935419
C         5.50432314660444    0.98869297786519    6.86865710960324
C         6.68564646248451    0.74683234076415   11.70809466654137
C         5.34530857248282    0.91179783597222   11.42114418768269
C         5.27717081772816    0.94820033229426   10.02982815575648
H         8.32972953914186    0.58083798347310   10.30928031142423
H         7.19407187549821    0.66682463318026   12.64729372767277
H         4.53408248950598    0.99431469846669   12.11363334157224
H         4.40818074219327    1.06380994832390    9.41067239887790

