39
CSD_code = CECKIE | q = 0 | S = 0 | Stoichiometry = C11H23Cl2P2V | MND = 9
V         1.63900597116237    4.71300036419796    9.29971557480380
Cl        2.70009907411107    5.53781965299146   11.15017665380635
Cl       -0.61939227908780    4.74111573971932    9.64754887068324
P         1.33713229690484    3.06805477596937   10.94013840798747
P         1.13634206736310    7.00089055501950    9.30155744080129
C         2.80444530063877    2.28432326476518   11.71601484664659
C         0.36126282460053    1.59020386068128   10.46805259334046
C         0.43864425927421    3.58333227634927   12.45078028101132
C         2.50062464866371    8.22771921434033    9.24823814144372
C         0.06165911823415    7.61740284943637    7.95101272122774
C         0.22334651850326    7.63044566573687   10.75932925869564
C         2.73472953279592    5.23829727205196    7.48751861773632
C         3.54503161036321    4.33658969909974    8.18869040278456
C         2.82948111682835    3.14370265468896    8.35297245621060
C         1.56832557021325    3.29550692727490    7.72426493944819
C         1.50923376600922    4.59040728969525    7.18923729551026
H         3.36674116663613    1.71563450689537   10.97841760918980
H         3.44265436708789    3.06383122882358   12.12812166764011
H         2.47964011651002    1.61527952329708   12.51343085550090
H        -0.59602909123036    1.92163493227298   10.06826788724701
H         0.89583664968342    1.02545975817269    9.70572416417865
H         0.19663613562186    0.95710650024783   11.34041661382936
H         0.98013385497458    4.39649717218772   12.93265606733299
H        -0.55959470903887    3.92368349963446   12.18090373825354
H         0.37042947568139    2.73122587726865   13.12855936215337
H         3.04229227461187    8.15361092161452    8.30759373206699
H         2.08914488794289    9.23271338157269    9.34713284795255
H         3.18498202938842    8.02883985455257   10.07100966992680
H        -0.19479480696798    8.66282258414668    8.12497430758023
H         0.58118978899051    7.52512379396897    6.99835937804870
H        -0.84528390529717    7.01483752254601    7.92851415656411
H         0.06175671829772    8.70252296596312   10.63830083632215
H        -0.73380155890146    7.11767741460966   10.83755901277789
H         0.80823466513247    7.44420641591720   11.65933983643463
H         3.05339437995126    6.19547645024583    7.09821820868712
H         4.55392108325993    4.52375705246552    8.53106349498864
H         3.23361399042541    2.21920549420085    8.74177136460588
H         0.83863282432339    2.51344705549831    7.56467923367237
H         0.72799826642132    4.97079403170301    6.54533745287558

