81
CSD_code = CEGPOW | q = 0 | S = 0 | Stoichiometry = C35H35BrNO6PPdS | MND = 4
Pd        7.69438679126064    7.15949129713890   12.22169172267882
Br        6.13217271895005    5.44190897655085   12.54468673306955
S         9.68307943541092    9.08896250274583   12.67714851624303
P         7.38937224853016    7.99553101900539   14.28239851713420
O         8.79618295621524    8.85178035125909   11.52089950648226
O         9.80576642196987    7.87951330695705   13.49237213142029
O        10.93317703826429    9.68936998961312   12.29815993547528
O         5.38613968079904    8.89569036435116   12.72436340060812
O         6.62313858826992    8.73562356153462   18.31452882606769
O        10.54043999337004    9.51373896323228   15.91815639514232
N         8.23868683494321    6.38062495383669   10.40802147092752
C         9.78154905073833    5.04147728743219   11.70280251722454
H         9.99673234805278    5.86968524993156   12.39726670556125
H        10.68437226254971    4.44943689508727   11.57346043005369
H         9.00410161621788    4.40559822142928   12.14364088654416
C         9.29730143855249    5.56815822991087   10.38778847729393
C         9.88817620011985    5.21340124738120    9.18048124034116
H        10.74564453941901    4.55936599208329    9.17451036296693
C         9.36437862391313    5.70808558286589    7.99867571960132
H         9.81075459806683    5.44708406207100    7.05089138431855
C         8.25722205200903    6.53827624320735    8.04761732614348
H         7.82030302957921    6.93503177079982    7.14493687625528
C         7.71343665744627    6.86289558949988    9.28296341328428
C         6.52795197031008    7.75873205503659    9.44466491375465
H         5.75223278558607    7.23635792572657   10.01636640031299
H         6.12545652568236    8.06426521369059    8.48210349614865
H         6.84496271582487    8.64530617537467   10.00774648319476
C         8.74956275008962   10.27472050731554   13.62525524370240
C         8.98353581225555   11.63050417389572   13.52206490216542
H         9.82146171790965   11.96457016103707   12.92851560230262
C         8.13821283393445   12.51711437767701   14.16570185267844
H         8.31550342639185   13.58078105715168   14.09623626399420
C         7.04330456657097   12.05197374373579   14.89190714020702
C         6.81520471999645   10.68661837048605   14.97207164156548
H         5.96255964877226   10.31557539076063   15.52423582030061
C         7.67752614743646    9.78566291536052   14.35060380161829
C         6.11079721516814   13.02435042350244   15.54850025386693
H         5.50710765247604   13.53227575497859   14.79612687563252
H         6.67096401824934   13.78139388551740   16.09246769908203
H         5.44439319295110   12.51553874884784   16.23952330443790
C         4.60792381662457    9.62414555390471   11.79996471296738
H         5.31076039386056   10.07648997717089   11.10129812100283
H         4.04304057469287   10.41499294667335   12.30389290239754
H         3.91888492773306    8.96859154876188   11.25767347406610
C         4.76270798998329    8.40969816377216   13.84105206334518
C         3.39653008961932    8.37099213305374   14.06056443206076
H         2.69724580719500    8.73964229561078   13.32674824513304
C         2.92104859198977    7.81837689364448   15.24192402578921
H         1.85526594504639    7.78420138114654   15.41194409391654
C         3.78810975165881    7.30120659636604   16.18616339332242
H         3.39942645914355    6.85882381302182   17.09059109650459
C         5.15651397454939    7.33646579802414   15.96571648044470
H         5.84429476109664    6.92988405811528   16.69116448848718
C         5.64837860238089    7.91584451392058   14.81053897497446
C         8.27282655998442    7.16521749122821   15.63847059498123
C         8.51451854708125    5.80977985254451   15.42009290991172
H         8.20871874910939    5.36035030250630   14.48078245166351
C         9.14404501206638    5.03670807839226   16.37509424257207
H         9.32247649821612    3.98764625941402   16.19138014348172
C         9.54715975185682    5.61812509826978   17.56581674941648
H        10.04074026267114    5.02548853285430   18.32229388429594
C         9.33312332157293    6.96663542064918   17.77801791119669
H         9.66487546576800    7.42990936898871   18.69645732417419
C         8.70297250644337    7.75924428695894   16.82322007579461
C        11.60842913919852   10.30668383721470   15.45979990556084
H        11.25709474885396   11.18556759144555   14.91281724071978
H        12.16317205087246    9.67398189116630   14.76997421380443
H        12.25096269715141   10.61874265524824   16.29108522455951
C         9.57789224402293   10.07822707500922   16.68777378065786
C         9.53158345690597   11.41777731027675   17.06131025681398
H        10.29944144416858   12.10597663188712   16.74858427018741
C         8.49092422840860   11.86815227573486   17.85097791532712
H         8.46258235863393   12.90716762964542   18.14416102418396
C         7.49013757370519   11.01804388418000   18.28376305600543
H         6.69688678060198   11.40489417791091   18.90252180413204
C         7.53590223387297    9.67413991740360   17.92888542089696
C         8.57337614250265    9.20456027741817   17.12147032204324
C         5.52602859257029    9.14363693296170   19.09159013432532
H         4.90678490195522    9.87619322838449   18.56310056307395
H         5.84318616331593    9.56092326802795   20.05282121080710
H         4.94017405895869    8.24299851307989   19.26694667502363

