54
CSD_code = CIVLID | q = 0 | S = 0 | Stoichiometry = C27H20Cl2FeN4 | MND = 5
Fe       10.38996384068606    1.56173245936144    3.52089961198375
Cl       11.72544620689507    0.13198743017686    4.25337596993071
Cl       10.10049860205052    3.60170601386002    3.19482693954429
N         9.37327727951947    1.59336770410790    5.18911927073308
N         8.92652645719894    0.69521276738359    3.00179407907640
N         7.51984643905807    1.02622068444263    6.30738737399423
C         8.32845006505093    1.71536001969075    7.18211492862311
N        10.96544082472727    1.25975758054683    1.61952201452487
C         9.49631246355791    2.05894783517453    6.46460667789835
C         8.85782644797518    0.26499291003407    1.71880722669059
C         8.18029577630313    0.98383863792563    5.11116816701549
C         6.73910284388502   -0.23873377197369    3.35043531284598
H         5.90353899528436   -0.41319384482168    4.00780383882445
C         9.99661870077848    0.58154282342377    0.95552631290460
C         5.11206885562843    1.24162468862187    5.83675753426681
C         7.86762089190317    0.44113789929676    3.83202288757674
C         7.76609735308292   -0.42655466644695    1.17651951547848
C        12.05831805329213    1.59972585211085    0.95006023170111
C         9.21248878274391    2.77599676095089    9.10048303840882
H         9.12510016171777    3.07188844914249   10.13505097293695
C         8.17698532601630    2.07548337867821    8.51273988263684
H         7.28889093206894    1.82723165113064    9.07431769422219
C         6.67885263854280   -0.67081511079162    2.04496943731210
H         5.80670238155253   -1.19089911807986    1.68132645042826
C         6.20707344045605    0.51423565274918    6.58570323332858
H         6.03644786621064    0.61572509811617    7.66241121743590
H         6.17580720160217   -0.55542858625064    6.34570428724357
C        10.52966114601230    2.76325684126941    7.07012189095856
H        11.41385844078585    3.01639301608886    6.50572642361781
C        10.36854968315385    3.11344466389231    8.39367556535161
H        11.14861535942258    3.66153850699835    8.89952736546319
C         5.29588472087060    2.53206381730720    5.36116230205621
H         6.23575888482777    3.04077052816281    5.51634242299046
C        12.21448198466226    1.26045971137116   -0.40231162919371
H        13.12169174743868    1.55600496449616   -0.90669920307031
C        10.06905233524251    0.20112952598736   -0.39862992917388
C         7.86147988006992   -0.80512051397547   -0.19009221107746
H         7.03318395812340   -1.34139746895108   -0.62973280020084
C        13.09783677577549    2.37138268771618    1.69098074608528
H        13.23695719103050    1.93761585333262    2.68259373127630
H        12.75431180340548    3.39801140395312    1.82356597844312
H        14.04388448816252    2.37700352151262    1.15767858075969
C         4.27750089884172    3.17486001875924    4.67864964112874
H         4.43484887364814    4.17623303523939    4.30782596004957
C         3.89227257801499    0.60869048026664    5.62956267752363
H         3.74188806148183   -0.39575151161028    6.00078162010582
C        11.23855918165406    0.56550737474712   -1.08227798312300
H        11.36511918632507    0.30506459563689   -2.12262100844102
C         8.95997716781636   -0.50634517032058   -0.94031250076852
H         9.00658695774674   -0.80480528473224   -1.97753623390396
C         2.87357334244863    1.25435054174718    4.95309744226829
H         1.93036520962901    0.75212378393716    4.79754500352243
C         3.06610493656097    2.53873407191794    4.47237407216982
H         2.27339637906923    3.04128980669191    3.93904796761353

