39
CSD_code = CIVPIH | q = 0 | S = 0 | Stoichiometry = C16H19Cl2NTi | MND = 8
Ti        1.75416866108673   13.42734065753943    2.57773289545357
Cl       -0.16559362682490   12.74988966218438    3.34028197726259
Cl        2.49094702599717   11.53844427539020    1.80145877284653
N         2.70271577162245   13.67653076150304    4.13977401235177
C         2.49172775553679   15.51079978930450    2.31377727211923
C         1.07363042003090   15.54870892814097    2.21400594964710
C         0.71382048780662   14.81906256530958    1.05408438495970
H        -0.28918745239297   14.73649885232089    0.65020647123490
C         1.89268273835470   14.32412582680960    0.44119403042846
C         2.99991522644784   14.73795735310249    1.22919280303477
C         0.14952760292356   16.28368102057738    3.13662557069924
H        -0.80367584310061   15.76030383326426    3.21926771824830
H        -0.04308172522507   17.29127662212900    2.76017264961116
H         0.59552758999766   16.36999049712952    4.12920062156890
C         1.97088443459009   13.59426528988419   -0.86533383379437
H         0.98633675906583   13.23671945013169   -1.16467136469148
H         2.64757293599107   12.74105953592868   -0.79699007065068
H         2.34801356533143   14.26173576635673   -1.64356585269720
C         4.44799862789955   14.47277932436651    0.94183565852198
H         5.05940376642859   14.76546912906931    1.79581245550485
H         4.77497485546829   15.04291872389065    0.06945568524438
H         4.61082437201470   13.41265182035980    0.73563429442576
C         3.26134836727068   15.88981140306244    3.51546641897864
C         3.34178961747796   14.85026980188098    4.47581175803387
C         4.04398343534533   15.11015398275867    5.65987916910756
H         4.13279795627895   14.36073765208054    6.43098965124013
C         4.63199973103316   16.34649487581157    5.86363261502507
H         5.16701141897884   16.52544702899528    6.78494356177234
C         4.54897811021828   17.34950169255314    4.91359970378803
H         5.01673066431917   18.30583675295841    5.08834518099253
C         3.85666087233579   17.11540645298064    3.73344468941124
H         3.77773966283816   17.88528019875590    2.97944623440587
C         2.83867640323244   12.53367595904765    5.02580993450187
H         2.04402588496859   11.81092450993881    4.78076606598905
H         2.69961578794888   12.84159848537479    6.07271615094239
C         4.20164958239498   11.85527334486334    4.84591271814362
H         4.27844705444712   10.98801116150176    5.49685386928115
H         5.00708530170646   12.54849634193706    5.08137604164119
H         4.31102620014545   11.53197067080217    3.80985413541217

