27
CSD_code = CIYFUM | q = 0 | S = 0 | Stoichiometry = C8H12Br2N4Ni | MND = 6
Br        1.57158373496755    3.11274550885507    4.30387473986710
Ni        3.44331251235694    4.15635353995859    5.43127293089379
N         2.15771859797497    4.59470137922733    7.31884477294753
N         3.89273018225667    2.62960050463310    6.09549110456536
C         2.36544512955782    5.09823352540042    8.32696618151360
C         2.69324289560951    5.73642717131483    9.56303108352767
H         2.55804451105621    5.03932938112520   10.38865150724562
H         2.05770369286670    6.60794667542011    9.71177811636127
H         3.73792409377906    6.04758604820400    9.51288023012414
C         4.17993988000886    1.61110054770384    6.53758960960162
C         4.53467236542374    0.34168031441320    7.08757154416106
H         4.74052705957546    0.45074490451561    8.15244829094329
H         5.42645303295333   -0.03389236764297    6.58597253544810
H         3.71276087014461   -0.36000945862573    6.94381502760721
Br        5.31406048353258    5.19975167268425    6.56090532551520
N         4.72927015276018    3.71839916230459    3.54379012523844
N         2.99373789480376    5.68423290136320    4.76974254553232
C         4.52040492969646    3.21483752189633    2.53577553720441
C         4.19119878000159    2.57569224233694    1.30056787520958
H         4.32086062236756    3.27385736237280    0.47511901592721
H         4.83011798059833    1.70692451212255    1.14920344714305
H         3.14789187729480    2.26036088212199    1.35400693881748
C         2.70817326494329    6.70274733995844    4.32642865000536
C         2.35181165079377    7.97206923816374    3.77731862972137
H         2.14606720012523    7.86322778488477    2.71240294356151
H         1.45936672702864    8.34558971525127    4.27933376070460
H         3.17237987752009    8.67526199004051    3.92141753061264

