57
CSD_code = COJWAA | q = 0 | S = 0 | Stoichiometry = C12H36BBr2NP3RhSi | MND = 6
Rh       -0.11028846510720    2.24282794556389    3.50307363431408
Br       -1.34949930546713    0.93830265267126    5.35313938742005
Br        1.56236648660227    0.56301756179863    2.69175553718088
P        -1.31937276609953    4.16871152522048    3.73610400919624
P         1.39573093650653    2.68161216544147    5.19098796517851
P        -1.60662283633054    1.17173296447540    2.11441850134561
Si        1.97103195564578    5.13000573021301    0.04063293684963
B         0.81409205573362    3.30455755650356    2.08041497026054
N         1.29176643605431    4.09863959899332    1.22200769126766
C        -0.38323381171346    5.70656957108831    4.09709580782171
H        -1.07435885471434    6.54672398150165    4.16663185109763
H         0.31240467278763    5.87010394078994    3.27424824147636
H         0.17960045767324    5.63173315667504    5.02394712590648
C         0.78304623590183    3.39754226162689    6.76933714082781
H         1.63331058505949    3.59765778379681    7.42086611166654
H         0.13058318886764    2.66382349078033    7.24210611504881
H         0.22242046372755    4.31711286058865    6.61980730912706
C        -2.18422740168514    4.79872926155645    2.24332600474331
H        -2.70517532080298    5.72486449425435    2.48650405109486
H        -2.89996802232301    4.07950890865316    1.85377500766983
H        -1.42803456161779    4.99109489565094    1.48247930174321
C        -2.64519207364855    4.21726518657848    5.00115129242588
H        -3.13712575735329    5.18950878655493    4.99856329374749
H        -2.21592668831899    4.01904910889299    5.98237476963226
H        -3.37081870366361    3.43132021627976    4.79616391998029
C        -3.40418843544495    1.29409031424218    2.47884796243762
H        -3.96065746860437    0.78908978039624    1.68966249878476
H        -3.74484018341184    2.32392226165336    2.55466009071759
H        -3.59039336112096    0.79378327075956    3.42896991375954
C         2.83277058503392    3.75028367372448    4.79245604286633
H         3.50228750082047    3.81623973156040    5.64967564674184
H         2.50369755697564    4.74569296396593    4.50092930100130
H         3.36304188254303    3.30635444382492    3.95013305461910
C         2.24891668032478    1.21839208743861    5.88037453524081
H         2.79140173344539    1.51848479370568    6.77736662918705
H         2.94068875275300    0.80587939143629    5.14848355159661
H         1.51452475299551    0.45470169475500    6.13707859260646
C        -1.47116822934211   -0.65162553539943    2.07297625298771
H        -2.33168514526046   -1.05538569413204    1.53867544450577
H        -1.45944972473417   -1.04055803389204    3.09136928516692
H        -0.55089276554001   -0.95004262773882    1.57449422193430
C        -1.52765957381287    1.55451364117594    0.32212913048442
H        -2.23348173991717    0.93206651957775   -0.22722850911846
H        -0.51507169211737    1.34862223301412   -0.02437948775377
H        -1.74096340389204    2.60619463629117    0.14172130100236
C         3.73338021734962    4.56611979365359   -0.39727892161973
H         3.73782493035206    3.53729233292342   -0.74349481086754
H         4.39071661818459    4.62169006510195    0.46535926022013
H         4.16322255773780    5.18296993402603   -1.18095064702723
C         2.00391310822217    6.89652654287758    0.76993515974180
H         1.00403624208557    7.25808025521868    0.99494622871723
H         2.45340237998951    7.59602771773683    0.07224147354261
H         2.58259354470110    6.93453820190334    1.68852619587246
C         0.84543637713061    5.10380900594349   -1.49953322582972
H        -0.16051785065210    5.44358280604744   -1.26794417319024
H         0.76661555667037    4.10104801921648   -1.90838077417406
H         1.23658969110128    5.74830017298194   -2.28073320111527

