43
CSD_code = COMPUS | q = 0 | S = 0 | Stoichiometry = C22H16Cl2N2Pt | MND = 6
Pt        1.32041968696154    8.23343912905395   10.79653225694996
Cl        2.79718400657912    7.21594943308413   12.47447848720948
Cl        2.86189593539115   10.06488919716835   10.24557047596224
N         0.50126512023685    9.09095920413285   12.40250586396762
C        -0.01818885803539    6.78795406679200   11.26582693477329
C         0.09553390527424    8.98759341173968    9.37093102865006
N         2.16047187350059    7.38373284323719    9.19690116011710
C         1.67553536452283    7.77343431988609    7.99940962583794
C         0.50057273096783    8.63282750932107    8.07451727494312
C         0.45637893993041   10.75064188795215   14.09473431397340
H         0.81686078008956   11.69844127821849   14.45943551363963
C        -0.38407020561130    8.33722215579673   13.08731578673040
C        -0.24281552632785    5.59229324078009   10.60872546115901
H         0.29103856150104    5.35412058975351    9.69800927077127
C        -0.19605782178971    9.12273422131108    6.96969669923436
H         0.10994251578643    8.85953329261609    5.96859237647900
C        -1.84914080933538    4.95708990881962   12.28438041086995
H        -2.55555407820848    4.24022406204916   12.67535644047372
C         3.91898368078606    6.19453128610908    8.14145321620511
H         4.80058427724797    5.58269206935581    8.24002164239596
C         3.44229099355589    6.57986063026883    6.89607239473655
H         3.94968862898592    6.27224761732293    5.99427109025776
C        -0.87963243926488    8.78445193298091   14.31123881041282
H        -1.57800794111062    8.17525355762704   14.86119578947330
C         2.31239837048768    7.37198978554946    6.82605779322675
H         1.92995925086997    7.69474065726104    5.87164384451124
C        -0.71632487188056    7.06866506996774   12.45094663583675
C        -1.15587066679196    4.67934615975726   11.11680985853212
H        -1.32358086407341    3.74601349181684   10.59963778433750
C        -1.63284160632638    6.14501619536112   12.95376814518723
H        -2.17169617949047    6.34950667445923   13.86642422684772
C        -1.67801597898611   10.30775192218811    8.43591974991789
H        -2.52435829601127   10.96396806762231    8.57653806001540
C        -0.99124314648545    9.82534666167877    9.54086035222728
H        -1.31472609172150   10.11603357425734   10.53181480108767
C         3.24610312206688    6.62222004514979    9.27100834619528
H         3.58307679824712    6.36160600177166   10.26855731922857
C        -1.28149051424989    9.95544571584390    7.15546693464854
H        -1.81866013695286   10.33781465545800    6.30046529817424
C         0.91297998274096   10.25718833774259   12.88662135206639
H         1.63579042589498   10.79877414073578   12.28596777137919
C        -0.45641713514495    9.99729407510653   14.82001795926166
H        -0.82606178360572   10.34876192296038   15.77140144205280

