39
CSD_code = CONZOX | q = 0 | S = 0 | Stoichiometry = C15H15ClN6OPd | MND = 4
C         3.01517434580661    6.78499294113824    6.03331549820975
C         2.23277376765411    9.34468419686745    6.59320971793917
C         3.79230263096992    6.66695380524471    8.33863462635304
H         4.16079987091046    5.72861978950866    7.91476955570228
C         2.72176014862134    6.38071517613105    9.38782119788406
H         2.29822436700001    7.31701022667423    9.74200146347546
H         3.15731921160127    5.84577110084402   10.22640603309881
H         1.92737783019158    5.77308524142548    8.96116280782747
C         4.94861176489533    7.47309455516750    8.91967759424987
H         5.70312735358547    7.65888900641417    8.15923453785034
H         5.40520133222693    6.92480396518141    9.73831101158577
H         4.58052971019561    8.42633171838066    9.28916744809553
C         1.63872000041753   10.67746572085078    6.78280986890547
C         1.78634056611883   11.41293090932933    7.95133628510630
H         2.36449590709094   10.98928390642383    8.75593665909593
C         1.18326101155407   12.65553219964462    8.04502167716325
H         1.28089163359465   13.24495962426640    8.94377078965458
C         0.45259888311408   13.12900492673246    6.96400632695764
H        -0.02999579438638   14.09231200074947    6.99773016617769
C         0.34096599284962   12.34170197556167    5.82917417063415
H        -0.23050768898105   12.66292762737514    4.96490082679086
C         1.90032865060624    7.18989199840841    3.83786507466962
C         2.16224633407590    5.93804252361667    3.25674324928191
H         2.79559994289126    5.24402113058575    3.78224876299778
C         1.59671728883512    5.63019691580889    2.04402831384366
H         1.78651928454031    4.66959335066198    1.59081866314535
C         0.78671814812484    6.56747299301950    1.39937103738298
H         0.33575991659430    6.35351576328515    0.44513072211052
C         0.57010281978253    7.78024658683820    2.01271317320496
H        -0.05320758940517    8.54470209860787    1.56201942365243
Cl       -0.71282261063123   10.78644022237588    2.99969359597392
N         3.20434656704268    7.40512729429725    7.22585319548006
N         2.71626894008485    8.65349680912762    7.57763609917630
N         2.23908383800057    8.95925166549231    5.30909341766398
N         2.43476001848109    7.59126300478267    5.03188198352053
N         0.91438028555469   11.14546173789578    5.73646066051960
N         1.09686562528743    8.09497725028849    3.20012088424327
O         3.32016950422170    5.62852325740579    5.83084991632824
Pd        0.86169019088252    9.79260478359291    4.24397356404582

