37
CSD_code = CUCVON | q = 1 | S = 0 | Stoichiometry = C16H14BrFeN2O2S(1+) | MND = 6
Br        0.73035778757396   13.12012329930098    0.80457709621879
Fe        2.90601381598513   13.25755059627920    0.01847582209121
S         3.55998866057401   12.41098392973052    2.03858758230261
N         3.13826207435899   14.99068981495213    0.82227617783336
N         2.19329865992043   14.35438853117709   -1.52327298992730
O         5.53071459735540   13.19955171401766   -1.18284784285783
O         2.38291862090294   10.48763527215755   -0.67182848416344
C         3.93430360540328   13.97655182684643    2.81898164892835
C         3.93963405720303   16.37532842352045    2.71420820324497
H         3.76973532400249   17.30151314729557    2.18949318178171
C         2.13575242321384   15.65897809956195   -1.16757966431951
C         1.05086431562562   16.25730299233300   -3.20906641810205
H         0.59769309613500   16.98243073661288   -3.86600938419622
C         3.66393468076982   15.14817933399920    2.10323257567540
C         1.70289748120327   13.98810512298090   -2.70748888762304
C         2.57446252728266   11.59558853941326   -0.52452877495134
C         2.67886800113411   15.96869086233895    0.12204005355295
H         2.66729009472427   16.99701091239767    0.46315888238340
C         1.12226484658970   14.92395411690181   -3.56790980253183
H         0.72642804055336   14.59004177109942   -4.51334745767221
C         4.50953161034426   13.23191104561021   -0.68418220397564
C         4.68401112669997   15.24106521116436    4.70238566129445
H         5.06626515386409   15.28019147662686    5.70976641130020
C         4.44740979736326   16.41303828416231    3.99842597866148
H         4.65484553302396   17.36671125950325    4.45740596682885
C         1.76428552598708   12.55681261364656   -3.11027028222095
H         2.75032221984847   12.14286790956143   -2.90813619000493
H         1.54329351645253   12.44446272815830   -4.16755035862664
H         1.02154422221621   11.98894251092349   -2.54982203329479
C         5.23578830703236   11.70292755859163    1.98481149461121
H         5.94409935243993   12.42307658583920    1.58885329608516
H         5.19102862394978   10.82362462709216    1.34940763425631
H         5.51721944108234   11.40634942585903    2.99110428862064
C         1.57527755937008   16.63704984862726   -1.98673549159038
H         1.54656063737876   17.66223430343280   -1.65586594388919
C         4.42202718428477   14.01565375828381    4.11226621962011
H         4.58750747815109   13.09888181000061    4.65568403465601

