47
CSD_code = DALFON | q = 1 | S = 0 | Stoichiometry = C23H18ClFN3Os(1+) | MND = 9
Os        8.51597672484283    9.65447592828130   11.89556245558495
Cl       10.52078579164764    9.29782280988183   12.77960209302838
N         8.51614622162729   11.55143212135331   12.43930066783069
C         8.24149811852714   12.06327601311986   13.63967325896090
H         7.92795368308523   11.38825069989022   14.42383867529011
F         8.08454952536572   13.87593827773207   15.10030011891926
C         8.37554360010321   13.41560379264637   13.88665985665153
C         8.81366195793779   14.29091573243612   12.88877938403420
H         8.92233358955743   15.34118826689549   13.10556362317189
C         9.10377040677621   13.76461319378811   11.65361516185753
H         9.45717369583336   14.37247983869620   10.83801984460331
C         8.95450546524556   12.38616131324249   11.44219401381955
N         9.21107137479863   11.79038602705119   10.26360960406876
N         9.05610106512276   10.51414787449919   10.29089767051375
C         9.22538370360636    9.81549786888638    9.09971900909428
C         8.93246528474678   10.41008628009282    7.86955180200847
H         8.61094511504363   11.43895351978153    7.85403129157730
C         9.04945704603665    9.66890152164263    6.71129376996955
H         8.81375105972541   10.12230573633007    5.76155715016923
C         9.47074173603811    8.34813832283083    6.76454941626871
H         9.55972893917669    7.77398697158102    5.85578666679023
C         9.79893862704980    7.76834462451119    7.98242742220170
H        10.16278814532668    6.75309620340293    8.01551245448018
C         9.67712146521407    8.49367476576308    9.15058017291219
H         9.98066054344705    8.07223558472877   10.10172794992499
C         7.36349779353793    7.32920320053177   11.14513651964967
H         7.60808962995066    6.76269962057485   10.25810689655520
C         7.76596038822494    6.87151590711375   12.38965288586992
H         8.33848556754781    5.95848636151468   12.46824336077321
C         7.37046285770270    7.54174756976867   13.56062401239779
H         7.63607771181748    7.13707171919587   14.52575265299036
C         6.57411921120992    8.67276500626595   13.46853217204825
H         6.17903912412050    9.13363402172704   14.36338565284838
C         6.23288352203763    9.20413348364899   12.20771293003254
H         5.50519319723083   10.00669137789686   12.15314698024005
C         6.61265774243936    8.52572767811106   11.01607537542882
C         6.12143676462490    8.97778088747496    9.70018680516196
C         5.98921432425986   10.34106434007132    9.42718774283970
H         6.25513914563893   11.07361775993107   10.18173866938092
C         5.54932594383999   10.76983912879244    8.19011776555060
H         5.45493909007188   11.82627722753023    7.99244906685466
C         5.23143842408015    9.84702234011569    7.20635718257032
H         4.88755201074980   10.18295132407006    6.24100801447198
C         5.34939802279746    8.49305164317445    7.46984290573416
H         5.09060087413956    7.76961603833091    6.71263680111811
C         5.79079343921968    8.05862955157537    8.70605959924331
H         5.84694232887873    6.99996052352441    8.90759247450969

