38
CSD_code = DAVLAO | q = 0 | S = 0 | Stoichiometry = C18H10Cl2F5NOTi | MND = 9
Ti       -0.76921320053468    2.06370388287948    2.89353123669185
Cl       -0.47023905984332   -0.10025692630087    3.46805775709700
Cl       -2.31601113337062    1.31195272627803    1.49103147483376
F         1.77082976910016   -0.46690246177682    0.28486547536271
F         3.36867513133569   -2.43171622763245    1.27648184140558
F         4.30812526620749   -2.28293208063660    3.82838935371331
F         3.63741088183761   -0.15053684068832    5.40319874876543
F         2.01872405083901    1.83958663856809    4.36284584765887
O        -0.62313123004115    3.45071723566305    1.59672329022744
N         1.08204198245317    1.76919834651778    1.90568606408288
C         2.26820251921966   -0.36096357690004    1.52430044655698
C         3.05968571362287   -1.38106895564504    2.03742840363194
C         3.53710895892610   -1.30888296984785    3.34351354063502
C         3.19956934025531   -0.21882746177741    4.14623684298037
C         2.41299235136744    0.78660395601600    3.61516162838848
C         1.93638174161239    0.75810813860858    2.29893110755823
C         1.21902692090827    2.40248013245068    0.73433640156756
C         2.33954456843517    2.27867164548298   -0.10251702821460
H         3.14724771634774    1.67322691446086    0.29201696504978
C         2.54932503323314    2.80581007647809   -1.35911770375923
H         3.49459143495865    2.53777210524885   -1.81485710202086
C         1.71836887578642    3.60298555875680   -2.13852092404251
H         2.07897354620747    3.82706071410223   -3.13351468798309
C         0.50380554006857    4.16960786253719   -1.78762520531124
H         0.02997357172154    4.77581092770088   -2.54958064228141
C        -0.17206323762244    4.10040844724681   -0.58377925854882
H        -1.08685613194945    4.67406498069174   -0.49319300120720
C         0.11987494882520    3.34852701770203    0.56131499346366
C        -0.39717934292737    3.56448709271261    4.66325408905440
H         0.53318847746871    4.06395546271333    4.90182440850646
C        -1.47925592122709    4.12763845728505    3.95183327742544
H        -1.49614504172445    5.10850893952752    3.49729498904808
C        -2.55414195269619    3.22020988844457    3.98992518636396
H        -3.54255009814524    3.38957703605959    3.58325752635733
C        -2.15870974595652    2.10848264556658    4.76482719201765
H        -2.79376121312658    1.28267077041480    5.06485357788819
C        -0.82802359819339    2.32661059458765    5.19202569028951
H        -0.27828743335740    1.70494930650909    5.88685819673981

