67
CSD_code = DAWWUW | q = 0 | S = 0 | Stoichiometry = C33H30AuClN2 | MND = 2
C        -0.62341953882191    4.91597843473205   11.54522223287361
C         0.69692858578835    5.95879306528805    9.94484843246946
H         1.00338393301821    5.47635909011637    9.01289125701422
H         1.44457421561795    6.71514755373331   10.20252268006699
C        -0.71836117752838    6.52430476730745    9.86712904218643
H        -0.75195416163860    7.58329444394296   10.14166005640434
H        -1.15098067598772    6.40954270332174    8.87200259875650
C         1.84048503887907    4.40602740763453   11.52890911834047
C         2.88568958345981    4.34341204475772   10.42980680175021
C         2.86351614831273    3.60847514276758    9.26395473652292
H         2.01485774618137    2.98716455343213    9.01574476815242
C         3.95850694322404    3.67766601191990    8.41182718184005
H         3.95631792023990    3.10967403498195    7.49342248378739
C         5.05542528034279    4.46228798655684    8.73112507228585
H         5.89812254811571    4.49795106878484    8.05667789551271
C         5.08673029884085    5.19613586355414    9.90680765581205
H         5.94668733038182    5.79935752496501   10.15522858170011
C         3.99554706695324    5.13423623765420   10.75673670557653
C         3.74327881747729    5.78271783499719   12.03643269865809
C         4.51131470094993    6.66990673288409   12.77101305972344
H         5.48359683528842    6.98173359072337   12.41998516219048
C         4.00365649715951    7.15019592157754   13.96852307804269
H         4.58889837182987    7.84221559227926   14.55607580839717
C         2.75421453904431    6.75566912911559   14.42137228192968
H         2.37574468759416    7.14294006169048   15.35519091997564
C         1.98099048871759    5.86213344875182   13.69031298493787
H         1.00674714354141    5.55396202097227   14.04526385590511
C         2.48566896589921    5.37654520740878   12.50458837601922
C         1.65534010969133    3.00638324608827   12.13662202553242
H         0.98689419864145    3.07692479644971   12.99633911414933
H         1.17467955577049    2.36829248646442   11.39249297089330
C         2.97484407626721    2.38792039589033   12.58261023936763
H         3.64948400302024    2.24086213811427   11.74190397791020
H         2.78358492915663    1.42327601852468   13.04497377379217
H         3.46687806749992    3.02600075332923   13.31309609819433
C        -2.81645327624879    5.96140257057858   11.22376022559489
C        -3.59122986263575    4.69216748990486   11.52774291355271
C        -3.69880910485884    3.53623799205525   10.78436355564453
H        -3.12876049800448    3.40115900787155    9.87673813900230
C        -4.52980894711066    2.52361246932070   11.24692102878112
H        -4.61300350398855    1.60631599139297   10.68268135258952
C        -5.24462106756621    2.67267088238717   12.42398773725022
H        -5.88282649091554    1.87090288567157   12.76420453024419
C        -5.12887327160702    3.82573505714034   13.18446535638044
H        -5.65834087054300    3.92488083082008   14.11884119182590
C        -4.29418171445823    4.83257471351431   12.73546359824487
C        -3.88213739880665    6.07544999023716   13.37035313997384
C        -4.19740875895233    6.60548198306093   14.60824355917726
H        -4.90468761964941    6.11094177792287   15.25511443931497
C        -3.56318017194363    7.77075392333226   15.01069150584777
H        -3.78700101175926    8.19301364340667   15.97908079501924
C        -2.63383948257588    8.39336509177856   14.19393299697176
H        -2.14036949063694    9.29293262316393   14.53156507490728
C        -2.32355074787252    7.87200569657977   12.94354605733158
H        -1.59324169476220    8.36537893130651   12.31732246751329
C        -2.94737286200069    6.71252546481186   12.54100100560333
C        -3.58442910045482    6.77799043522229   10.15879259604992
H        -4.51726845523857    7.09980638653084   10.62773937000206
H        -3.01762349516363    7.68093743782385    9.92640106819781
C        -3.93146848116076    6.02970678324728    8.87597790756699
H        -3.05867619001053    5.56773061081515    8.42203623332582
H        -4.36190497528600    6.72454224844027    8.15798611535572
H        -4.66219839474826    5.25079161354229    9.07559055738640
N         0.59625004886237    4.97002331704345   11.01885315890562
N        -1.43186777243614    5.71938756764953   10.85466507773710
Cl       -2.01618636967379    3.29138385661933   15.24907660831764
Au       -1.25660204066592    4.07440341606898   13.27564690972643

