55
CSD_code = DEBXUD | q = 0 | S = 0 | Stoichiometry = C26H24Cl2P2Pt | MND = 4
Pt        9.11541914535926    5.35146322554035    2.66834773698868
C         7.16870965699445    6.00170159968564    0.06261431701213
P         7.05409335338373    5.92613341273573    1.91400690700932
C         5.48037429006211    5.12287368587194    2.29510759145298
C         5.06299382409166    5.20575913788752    3.62302579361699
C         3.89304653027691    4.58784858153295    4.01887804437534
C         3.13612973240831    3.88210717814006    3.09626640448188
C         3.55576757627582    3.78786328740847    1.77978411248972
C         4.72950087574722    4.39997363820458    1.37512405522844
C         6.75067659012855    7.66685444571851    2.33115246063120
C         5.54027880707666    8.28948967463251    2.04351141961684
C         5.36852751271330    9.62758605610857    2.34673644912748
C         6.39805038462259   10.34573732271408    2.93575960607670
C         7.60226154296438    9.72639522681165    3.22950372332426
C         7.77876356327551    8.38790768213737    2.92908089809843
C         8.46771907001960    6.70936103089972   -0.31043770730663
P         9.86149018193966    5.88114585079769    0.59659107969584
C        10.09434618613593    4.37072635943645   -0.37817169999309
C         9.76376298455791    3.15512364484552    0.21010737056607
C         9.90467463321522    1.97946237400071   -0.50514804070696
C        10.37456211738914    2.01747902684757   -1.80788392284474
C        10.70483895710216    3.22866746580646   -2.39717671440498
C        10.56665172377935    4.40649670052372   -1.68679293388544
C        11.34167872424030    6.86233028269414    0.26497176185119
C        11.30626948181411    8.24658380661268    0.13163282202674
C        12.48515977756543    8.95331303035155   -0.02461007193974
C        13.70086489086761    8.28969811822407   -0.02854792100621
C        13.74092868039731    6.91367975853013    0.13164548122110
C        12.56777714485296    6.20007721485840    0.28276993053094
Cl       11.29907915631683    4.95656774980390    3.26307516439500
Cl        8.30758692560073    4.71434215751794    4.71544487096914
H         7.18776138361583    4.97342740181555   -0.31389446631179
H         6.29843416036764    6.51888684734894   -0.35303605591052
H         5.67803677153238    5.73971386589003    4.33412128304929
H         3.57274906623798    4.65007626367948    5.04789116604459
H         2.22221752219433    3.39691403342425    3.40538958931604
H         2.96922103449968    3.23008349599743    1.06425971508470
H         5.05410693163837    4.31220961963418    0.34844227220369
H         4.73738468350785    7.72071994504247    1.59388073974714
H         4.42903726325815   10.11288218814294    2.12667038026483
H         6.25712997217361   11.38988017569696    3.17262054846157
H         8.39924710736794   10.28472948598580    3.69721604851086
H         8.71171946815089    7.87886655805074    3.16984500537894
H         8.64652749366096    6.68042265253601   -1.38931678076195
H         8.41838311495377    7.75393658725697    0.01049732480387
H         9.41266824938807    3.14566694834360    1.24080766492112
H         9.65462298978346    1.03488633610846   -0.04632376504341
H        10.48997514654315    1.10046299386946   -2.36638564707578
H        11.07507225792582    3.25227111164297   -3.41162025276292
H        10.83544787714639    5.35342119790643   -2.13592144998478
H        10.36373456768946    8.77442585526354    0.15607680264481
H        12.45563524088346   10.02751186819265   -0.13327693775229
H        14.61831009808148    8.84717788735925   -0.14509562117452
H        14.68908322514232    6.39802090824560    0.14645782164395
H        12.58871035306828    5.12975704569408    0.43022562603612

