25
CSD_code = DEJBIE | q = 0 | S = 0 | Stoichiometry = C10H8Br2Cl2N2Pt | MND = 4
Pt        3.09933447896331    7.06940723816302   -0.00019351246042
Br        6.90354774952860    1.75918443730824    0.95033076930872
Cl        2.90430272670136    7.33811260305199    2.28409197638991
N         4.22151803183550    5.50340486704981    0.27955859644812
C         5.38987927470512    5.60901490930285    0.91746082584625
H         5.66277488034167    6.59584324603246    1.27307196945838
C         3.83716730104089    4.30334216428535   -0.16233646782378
H         2.88963241528655    4.25834047853160   -0.68666178348950
C         6.21949762578500    4.52691142460096    1.13681135708053
H         7.15685236646434    4.65098538493359    1.65472313181509
C         5.81336155774690    3.28124538757769    0.67753633064830
C         4.59827812243974    3.16482439441678    0.01603564611727
H         4.25445675964963    2.21219166184333   -0.35347614133028
Br       -0.70498880953064   12.37990959414967   -0.94863683521614
Cl        3.29425767986014    6.80102518468199   -2.28469748203042
N         1.97740685924720    8.63551497927156   -0.28028292714885
C         0.80851092772251    8.52999439623309   -0.91721801403525
H         0.53527917710876    7.54319236085657   -1.27265389875487
C         2.36220058983508    9.83554607879830    0.16131663901240
H         3.31015341391861    9.88046780044190    0.68489760090797
C        -0.02119312750676    9.61217245007645   -1.13590671487561
H        -0.95895929915445    9.48819423645159   -1.65309855749738
C         0.38545579330608   10.85781970944641   -0.67703916129863
C         1.60104733378492   10.97412806570835   -0.01645028709241
H         1.94522617091991   11.92672694678685    0.35281694002048

