41
CSD_code = DEXDEQ | q = 0 | S = 0 | Stoichiometry = C10H20Cl2N4O2OsS2 | MND = 6
Os        3.17263034438716    2.54389064047399    9.30142268258921
Cl        3.62887007933935    2.23866488173823   11.57828027254693
Cl        2.68088160755341    2.72089488970866    7.01087843182854
S         4.41343493925085    0.66401038848468    8.88334683347567
S         1.31469153327721    1.29385748337771    9.54686183093625
O         5.81921168425436    1.04225096099208    8.75454145893004
O         1.52366971859766   -0.11712742130425    9.23591075523576
N         4.88845186677457    3.65493916837363    9.11059806574238
N         5.78918674769672    3.65206792125371   10.09004301034220
H         5.55292017661700    3.17270441002062   10.95967962497875
C         6.90102936037908    4.30126695067776    9.72958057289230
H         7.74232824906406    4.39948556990307   10.38489426126574
C         6.70380377773391    4.75712546008204    8.44400683460540
H         7.38401903930178    5.31594292933163    7.83613169364209
C         5.42368524703177    4.32346814837217    8.09802387845086
H         4.88850121538445    4.45646045206769    7.17789319749505
N         2.12684321984431    4.28294683378218    9.62139256659505
N         1.63710264224076    4.95929718243597    8.57876370189153
H         1.79193845320710    4.54711338048940    7.64875591661797
C         1.01736819569273    6.07846928911339    8.97700596683511
H         0.55843278290225    6.75326822356027    8.28374457654428
C         1.11345210446265    6.12858089123306   10.35134801109577
H         0.73213657266453    6.88410110499192   11.00573372014546
C         1.82215529525710    4.97974499161913   10.71035574425920
H         2.12225946465827    4.63913533664372   11.68241288518586
C         4.01980529843617   -0.32532339125363    7.40704330105710
H         4.05962671816394    0.33177570235365    6.54468086462898
H         3.02216368463228   -0.72729868985341    7.53710796617090
H         4.76399560184106   -1.10706706594297    7.31623219028126
C         4.38656223209624   -0.69521106905562   10.09446605021672
H         4.59658625331864   -0.27032827179572   11.07053768730554
H         5.16176333118629   -1.39854061689303    9.81557143676533
H         3.40203903704908   -1.14517049210012   10.07510593591327
C        -0.13744324946788    1.81177257339904    8.56559139466695
H         0.18342931175197    1.89608288016649    7.53236588415250
H        -0.48069656325224    2.77225694618504    8.93216394201675
H        -0.90342515760298    1.05211209200438    8.66278534465032
C         0.48460415137954    1.33175586751779   11.17165011276437
H         1.20872906498016    1.02793005700800   11.91993285516917
H        -0.34878095734608    0.64013988010442   11.14966338256996
H         0.15953692526151    2.34735353073247   11.36519515754638

