29
CSD_code = DOZVEV | q = 0 | S = 0 | Stoichiometry = C13H11AuClN3 | MND = 2
Au        3.32594531452092    0.39774992446459    5.90399770330608
Cl        2.67911191632760    1.37386681698870    3.99064858494370
C         3.89419991141892   -0.47828993949019    7.62147764409877
N         4.39999314348316   -1.71652499863116    7.73042313897512
N         3.75713786304008   -0.03384572913743    8.89388944824943
C         4.57364726631131   -2.05507137777645    9.04805738706043
H         4.97102310183443   -3.00320321341397    9.34569396047622
C         4.16011925196969   -1.00068897813053    9.78338275168481
H         4.11257267824766   -0.83789689332216   10.83888456193340
C         4.71426845755367   -2.59192966659826    6.63729197417945
H         4.09678722821767   -3.49056227986727    6.68326226198240
H         5.76522690051073   -2.88227790452170    6.67713062943383
H         4.51739225445934   -2.07064530245750    5.70143756987262
C         3.23055519942927    1.19918547853580    9.32207298580244
C         3.37308544517416    2.36872274409575    8.54838635629786
H         3.90482424565931    2.34109470168588    7.61192335484683
C         2.82194708722774    3.52430967720304    9.02857536761637
H         2.90228234043362    4.44503080983159    8.46944782757230
C         2.15230529869638    3.52141333958602   10.27024292009584
C         1.55337243825471    4.66473240169579   10.83361994715055
H         1.59055219823834    5.59485512328041   10.28524571490801
C         0.93690841665020    4.59054451003024   12.05210373258401
H         0.47652034427686    5.46747947328320   12.48210619891583
C         0.89430896342916    3.37692518181903   12.75783597614560
H         0.40244482401833    3.34389173978230   13.71869661330041
C         1.46515654006748    2.24755839885709   12.24028366211844
H         1.43835418587838    1.30585039987568   12.76545290044387
C         2.10348330621358    2.29245269427691   10.98432149046235
N         2.64577387845690    1.16367286805628   10.49020733554094

