65
CSD_code = DUYBOO | q = 0 | S = 0 | Stoichiometry = C29H25ClF6OP2Pd | MND = 4
Pd       -0.83577427135806    3.05759556402544    0.27068349015373
Cl       -0.39719395999820    2.31130203116554   -1.80743084858629
P        -1.06976636024504    3.83155701489832    2.35569889285402
P        -2.47351284214889    1.58173031365097   -0.04555273610768
F         2.25315312004637    3.30874096440816    3.03611217989491
F         3.31868852815036    3.47912170274520    1.18356406317534
F         1.48526249454842    2.36042555406134    1.26994265598551
F         1.59560296998945    7.10743899161798    1.09835907722754
F         3.06557811526871    5.85054000789806    0.17767620842462
F         3.01775499617629    6.06358592981182    2.32028575144782
O         0.60984474371567    4.59043127419929    0.18889486294396
C         0.28400324656156    5.08175384139250    2.52290084387774
C         1.25090399587829    4.75960175552664    1.34496668691460
C         2.09924216782530    3.48994058863329    1.71011281417128
C         2.24799470877666    5.94258306117650    1.21801068322249
C        -2.21523189100158   -0.06311368334209   -0.79534176454153
C        -0.76105570283703    2.67346232079973    3.71567636505620
C        -0.56033284468486    1.33861624002863    3.37844250378629
C        -0.30411777584281    0.40683564399930    4.36732598641100
C        -0.24459868477256    0.80652752683163    5.69235013770373
C        -0.42321200982548    2.13924624214411    6.02889231011722
C        -0.67658583590817    3.07679357143059    5.04476995503247
C        -2.55530840488503    4.79875589660796    2.73651913126461
C        -3.35588863042991    4.66116058327489    3.86115615623323
C        -4.50033821078215    5.43251738670472    3.98060668900117
C        -4.85492656851506    6.32146909235736    2.97998033354192
C        -4.06851561226920    6.44275888887447    1.84320878431343
C        -2.92452698187798    5.68008880509901    1.71956682611061
C        -3.68472484107189    2.41916064954931   -1.10960796367021
C        -4.85931582868379    1.78679277935511   -1.50387755162183
C        -5.77715833562220    2.46304142905430   -2.28657169442881
C        -5.53314156520246    3.77212846864640   -2.67043899535397
C        -4.36817292137027    4.40832163431701   -2.27283268665383
C        -3.44374194367558    3.73602779687508   -1.49337979639672
C        -3.47280800783721    1.21643648723710    1.43958227973061
C        -4.37093781056512    2.17545747973652    1.89874837075314
C        -5.07223446740229    1.97019177577926    3.07180232344632
C        -4.86650877313913    0.81683842430277    3.81155005136120
C        -3.96542637925924   -0.13611112835081    3.36756370395746
C        -3.27265574508204    0.06024078605676    2.18670542557330
H        -3.10615246889210   -0.67801557421549   -0.66951614610340
H        -1.98864663092434    0.08597649061943   -1.84959932840003
H        -1.35677814133813   -0.54331408078948   -0.32510782898573
H         0.76752742152041    5.06811947349924    3.50256512425532
H        -0.13962401249062    6.07317115759946    2.33351331563477
H        -0.58710607516641    1.04931901810257    2.32808438364339
H        -0.14266425991353   -0.62843190749599    4.10706589462497
H        -0.04463130111421    0.08043002953158    6.46604173171911
H        -0.35687793528904    2.44913193268433    7.06130779384009
H        -0.79740268338239    4.12008133207988    5.30272381717431
H        -3.09609963882598    3.94914711645600    4.63034072414205
H        -5.12089320362099    5.33409062910726    4.85925745385180
H        -5.75084570219624    6.91571429355073    3.08022804908074
H        -4.35378908248813    7.12563452183656    1.05712551505779
H        -2.29982327330710    5.74814001042797    0.83054429104381
H        -5.05388877076630    0.76978723139291   -1.19342042440987
H        -6.68552533690794    1.96899729084363   -2.59861315397076
H        -6.25164383080351    4.29565931840941   -3.28346597701053
H        -4.17868119581223    5.42706740170475   -2.57661380762804
H        -2.50741261056157    4.22521413176822   -1.19858812134956
H        -4.52330438218219    3.07887332611636    1.32249253372605
H        -5.77786774021790    2.71379172268489    3.41125661338569
H        -5.40862571822066    0.66024565751923    4.73208422710917
H        -3.80249416606161   -1.03550847057918    3.94288654969611
H        -2.57416514166583   -0.68981574538243    1.84488526353124

