36
CSD_code = EDIFII | q = 0 | S = 0 | Stoichiometry = C16H12BrMnN2O3S | MND = 6
Br       -0.49364801741063    4.21811695148489   11.60229711155145
Mn        1.53530760021940    5.02448892838169   10.46335933353477
S         2.28310024720725    9.37551439388436    9.79104159040076
N         0.82240406030989    6.87477479230726   10.61577876484077
O         3.92948312318114    6.00289085937030    9.09783354446611
N         2.20158537864296    5.52462130801133   12.33602480291434
C         0.19332950916345    7.59276662560510    9.59132014672097
C        -0.98710384848816    7.10946312263177    9.02975770033390
H        -1.43339708079500    6.21371284568754    9.43798666419749
C         0.76415654477716    8.77362369163598    9.09265315619916
C         1.81798505891249    6.76205743769140   12.71985330450512
C         1.09583804973842    7.49140774551864   11.71516722200176
H         0.76429022063831    8.50827498199553   11.90779838290053
O         0.40858283958189    4.44484017154601    7.81682743653206
C         2.13947075962548    3.33926088705578   10.49930965564442
C         0.82018082808238    4.69208826293385    8.85987943077820
O         2.48551098841461    2.24520689524893   10.49728577414314
C         2.85296315079911    4.77342445337754   13.22002697981129
H         3.14404605157631    3.78095149652664   12.89940826658158
C         2.08833098854906    7.27024968049391   13.99198866152701
H         1.75712668761126    8.26510927626537   14.24435673746419
C         0.15267674096868    9.43048530664451    8.03396640043861
H         0.58769030226047   10.33854192368467    7.64640542237843
C         2.76539107823436    6.47959031723030   14.89673946703142
H         2.98555972117267    6.83947482504407   15.88973394276901
C         3.00517360303039    5.61906263288286    9.66390696696911
C        -1.01506566720178    8.93821372553032    7.48348719213019
H        -1.47878878617659    9.46471034227332    6.66347582867222
C         3.15230040105300    5.20456328777639   14.50029808392533
H         3.67761667808885    4.54803090682552   15.17474479661814
C         3.18919230286273    9.88841331096223    8.30317324349721
H         4.23372176373521    9.93761083705935    8.59499226787416
H         2.85287663866399   10.86663899146242    7.97244405731580
H         3.05158374631914    9.14101715355527    7.52833226492936
C        -1.59070947131439    7.78175340032926    7.98669302706343
H        -2.50846219203207    7.40234823108745    7.56615237134017

