57
CSD_code = EDODOR | q = 1 | S = 0 | Stoichiometry = C23H28ClN4Os(1+) | MND = 9
Os        2.39395139477208    2.97368741574435    3.98567141779582
N         2.56667993872447    1.89606725846931    2.41791913500087
N         3.66404682828614    1.23465066122138    2.21858310534382
C         4.56282850207942    1.37892207186178    3.20604172588006
N         4.20830596630925    2.22812588560853    4.22085177975422
C         5.04489033979392    2.39306053455861    5.24731127463023
C         6.26574677080363    1.76012366195571    5.31289966103418
C         6.64915927495492    0.90671986171621    4.27436138644697
C         5.79715772703197    0.71356589044156    3.21417325029950
C         1.59561888147773    1.82022987598884    1.45234972614333
C         1.88460226072789    1.41032314704660    0.13883685587961
C         0.89782884402939    1.33316336264513   -0.80384690432477
C        -0.44823535286681    1.64162264612519   -0.49229686387132
C        -0.72704473183088    2.04311467355193    0.83645285192306
C         0.26433127636631    2.13079867611824    1.77535568678964
N        -1.42349850500316    1.54624332617012   -1.41854039015617
C        -1.15518947329917    0.98174073695542   -2.72120152426961
C        -2.77586619659579    1.95688650169802   -1.12132053105825
C         1.01920576195100    4.92118162391084    5.60577882447853
C         0.25123415953582    4.93488917893602    4.42097230725639
C         0.84548713467667    5.10511871833679    3.18331696103123
C         2.24933636173319    5.19691519530951    3.04824609885756
C         3.02330717907503    5.18782931653115    4.23390679304645
C         2.39790428018610    5.08811697796602    5.49588988330156
C         0.35331309589598    4.76977351657848    6.93286460265137
C         2.84647596810933    5.53470916284056    1.70014940246182
C         4.23961756452830    4.94106617634962    1.48948752516825
C         2.88726366738293    7.06102679794196    1.55536490604675
Cl        1.39986561403270    1.40098068713832    5.22890108989043
H         4.70922376001058    3.04705667326114    6.04071404563376
H         6.90710855342904    1.91906820224982    6.16337943945650
H         7.59990245716638    0.40010088697417    4.31340873074997
H         6.02905627815270    0.05852420701976    2.39200450720817
H         2.90640174855971    1.16745958544529   -0.10509656449138
H         1.16566848667323    1.03486537278325   -1.80260816683142
H        -1.74038333307299    2.24812240200039    1.13663875096897
H         0.01457233697298    2.37706248631992    2.80082270124477
H        -0.82474677183762    4.86595077180116    4.49607264107628
H         0.22967921360096    5.19016019486106    2.29811506644897
H         4.07642784227689    5.44286605146392    4.19191463138379
H         2.99520333677447    5.18932074893308    6.39280795801706
H         2.18175269010052    5.13199245644495    0.92677783000846
H         4.54123108682062    5.07954540429115    0.45475590406808
H         4.97952855103828    5.43089901090316    2.11734932553677
H         4.24847438060201    3.87151070986608    1.70437246361835
H         3.28127540731832    7.33013037015514    0.57936923861298
H         3.52646392075958    7.49962137008082    2.31810346051461
H         1.89142364917575    7.48591846538840    1.65506640081948
H        -2.09253595831513    0.81911300889930   -3.24654680522924
H        -0.53577832230181    1.65197397447420   -3.32395127570634
H        -0.64901167889760    0.01888981863955   -2.62951769208604
H        -3.35929245724951    1.97425519221881   -2.03787106713456
H        -2.79025389242349    2.96169882744174   -0.69567130774706
H        -3.25709726598629    1.26809681808476   -0.42091819732224
H         0.98238068127951    5.14757629530422    7.73478747000961
H        -0.60102207879630    5.29162970727411    6.94965481747190
H         0.15772284530020    3.71303744770366    7.12458565625951

