31
CSD_code = EDOFAF | q = 0 | S = 0 | Stoichiometry = C14H13Cl2NOs | MND = 9
Os        0.74184964970002    0.06833919802373    6.85458423027177
Cl        0.85949355134890   -1.21678163010796    8.71234964392363
Cl        0.30468209093114   -1.53902614883970    5.31348525439391
N        -1.02554516168771    0.51370071017291    7.10131427798761
C        -2.15945841271101    0.67274119346662    7.29927956133817
C        -3.55949785296433    0.87674823409946    7.54279492383661
C         1.71133200006780    2.30707519315847    5.75583334163876
C         1.95300505346216    2.48502013669400    7.12361212417793
C         2.77934935883222    1.59960929785744    7.80872664700288
C         3.38078758154542    0.53662141111716    7.11860536376618
C         3.16252417075142    0.37258883563451    5.75552293630380
C         2.31883617812335    1.25795676213327    5.05217913727309
C         2.09726554816262    1.09485145303420    3.60674859653558
C         3.16806010874752    0.87071643384785    2.74635452893446
C         2.94913301689105    0.71297158417425    1.39060686340548
C         1.66139972583462    0.76250254128515    0.88373312648717
C         0.59065520268654    0.97360280759128    1.73660364323368
C         0.80477978749192    1.14517740911286    3.09084743443068
H        -3.75412569841178    0.83169884978013    8.61446846657627
H        -3.87550620406339    1.84802624201626    7.16090175891568
H        -4.13125457668925    0.09303062289536    7.04616278275182
H         1.10627945272686    3.02506194519211    5.21791516193366
H         1.52346147832668    3.33410499120515    7.63662362031233
H         2.98600362710117    1.74577835163427    8.85878364175205
H         4.04779601605700   -0.13292453548079    7.64451238577191
H         3.65582747512893   -0.42474871043203    5.21523796376680
H         4.17445020712097    0.83905558637988    3.13929052513286
H         3.78599857815925    0.54546867125306    0.72870158382563
H         1.49245024870932    0.62924882236422   -0.17423635501881
H        -0.41567219909773    0.99711766821569    1.34677319988762
H        -0.03326000228161    1.27396607252132    3.76258362944959

