37
CSD_code = EJANOT | q = 0 | S = 0 | Stoichiometry = C11H20AuCl3N2 | MND = 4
Au        5.99891205203828    7.70105317079943    8.63938400410203
Cl        4.69032502883651    6.05106776294675    9.45420440594074
Cl        5.18939528791389    9.18557366336561   10.17637563737417
Cl        6.89813208604942    6.32983678392240    7.04455580680620
C         7.18131730218817    9.13222915255120    7.87617765374555
N         6.87573183109568    9.94008948298667    6.84589795593404
C         7.97226109759399   10.70029888778551    6.55250232288692
H         7.99971322966139   11.42931570402999    5.77345496623134
C         8.95475810304280   10.34625375767308    7.40965605111923
H         9.95000893965547   10.72617050585581    7.47474919725440
N         8.45743646926706    9.37012151801524    8.22587858699716
C         5.56192353293411   10.15389446221314    6.20558978993904
C         4.83142537284655    8.83507074974598    5.95705388327667
H         4.41678045994930    8.42112907749000    6.87445839065495
H         5.49503548384326    8.09943900542933    5.50941716752388
H         3.99894861004374    9.00636822176945    5.27956227594001
C         5.76513446023687   10.84027909957523    4.85027571827798
H         4.81173848609379   10.87813356558732    4.33083824951657
H         6.46361891030922   10.27994058199271    4.23294787729483
H         6.11136179950919   11.86487157078994    4.95900744229302
C         4.74729430083702   11.06283481421621    7.12991704201132
H         4.63111479326061   10.61225511942155    8.11236807829416
H         3.76144465546419   11.22813665612257    6.70503380094417
H         5.23933943445067   12.02585509117901    7.25164200161910
C         9.20462823191717    8.84181229580851    9.38526777938774
C        10.70482055522827    9.06532971717757    9.16490797497387
H        10.97191180465907   10.11798294483839    9.21127247475441
H        11.02383639649106    8.64688310108521    8.21305556669586
H        11.25322176232921    8.56070228528967    9.95531394081089
C         8.74059917805577    9.62081267242287   10.61889714108851
H         8.96161086806729   10.68066571380391   10.50826228877315
H         9.25403557887146    9.24953026931718   11.50105985008575
H         7.66959792635563    9.50935990163434   10.76748751721697
C         8.97659444744806    7.34233507664219    9.57015770862705
H         7.99544065917854    7.12941043691524    9.99072295472016
H         9.71392509370946    6.94866993218151   10.26491412136766
H         9.07492577055173    6.81308724742540    8.62563237551493

