45
CSD_code = EKAVAN | q = 0 | S = 0 | Stoichiometry = C19H20ClN2OPPd | MND = 4
C         0.46946996084140    3.47832161098072   -0.62063130936187
H        -0.39345198578503    3.04235035368564   -1.14472673737980
H         1.15372781890381    3.92344473756924   -1.34550249344947
H         0.13062540006490    4.23768602610486    0.09116245224601
C        -0.91502954970506    2.88883805986613    3.14964573754989
C        -1.72793061453637    1.93990799105427    3.76195943217633
H        -1.40061640194180    0.91299740182271    3.83422140866285
C        -2.95812518058569    2.30878318949685    4.27624342329612
H        -3.58123815806985    1.56962781378816    4.75804552762464
C        -3.39430851052537    3.61917527113231    4.17042245754305
H        -4.35563408342636    3.90294977719717    4.57188858404837
C        -2.59970941708577    4.56359849678647    3.53969854698938
H        -2.94241579703495    5.58355784518036    3.44582839806119
C        -1.36966161479500    4.20062240429774    3.02582834093044
H        -0.74731277169753    4.93347855118764    2.52976472121054
C         1.79254489229187    3.77449304038647    2.88674459386381
C         2.87070606908658    4.06432254732944    2.05221218156306
H         2.96067637348033    3.54861256013242    1.08653748570340
C         3.81132816909582    5.00490585148701    2.43385184456286
H         4.64378609893337    5.22807462389803    1.78352344318078
C         3.68139577017061    5.66131899512580    3.64711945249442
H         4.41222034617582    6.39914963258747    3.94298554913646
C         2.61335131088621    5.37313864696967    4.48230859424733
H         2.51394566051001    5.88464825022723    5.42855041518939
C         1.67416934566860    4.42889751480815    4.10961381439049
H         0.84128893594041    4.20339088810101    4.76167873549852
C         1.37065780478195    1.09367716586333    3.47630393313320
H         1.43268768408150    1.42782947686668    4.51584798151725
H         0.73720622165941    0.20436897747269    3.40078713339362
C         2.81138963391975    0.16128936261462    1.76100453575892
C         4.10870832471947   -0.06957760591350    1.23820965595075
C         4.23316907055394   -0.86954444380842    0.12412924775488
H         5.20967921790869   -1.06180923708549   -0.29886155204652
C         3.08802589546979   -1.41511970445597   -0.45528646812291
H         3.16435977653399   -2.04489308397458   -1.32583368099249
C         1.85965022202880   -1.08444465105012    0.07167914715066
H         0.93506012978458   -1.44543104090412   -0.36470285431423
N         2.67955355043117    0.74246145569932    3.00201051063975
H         3.45202734277016    1.33554194601714    3.27367616184808
N         1.71510457782879   -0.30944814604426    1.15553621231304
O         5.16513264682577    0.50526134479202    1.88978781988853
H         5.96654126402477    0.37121418237959    1.36915818312842
P         0.66124374945278    2.43447129197840    2.37247107851622
Cl        2.57187009981959    1.54683959306671   -1.55236386786475
Pd        1.33103072052170    1.86542103531217    0.29717222238086

