68
CSD_code = EQEBOT | q = 0 | S = 0 | Stoichiometry = C38H27AuClP | MND = 2
Au        0.09699429264845    3.75125000189239    9.92012326224064
Cl        2.33588329211740    4.13171577306956    9.89535514241579
P        -2.12748729410285    3.42559662032449    9.99436125965815
C        -3.19474375517049    3.01948645474433    8.57722572854257
C        -4.33671078922357    2.20581593898702    8.73784410266855
H        -4.50553150411921    1.70968097440526    9.68378976091162
C        -5.20948172103522    2.03299212095423    7.70426720844195
H        -6.07643994899301    1.39862423535837    7.82255929265115
C        -5.01245994251091    2.69156797732097    6.47185719612259
C        -5.92545001270662    2.56854856281679    5.40436876943418
H        -6.79670142202224    1.94339978868199    5.53804271064221
C        -5.71664065852669    3.23026210143412    4.22679793822401
H        -6.42133447538213    3.13254479564330    3.41428833166315
C        -4.58666550330469    4.04718358810008    4.06341227487852
H        -4.44137759494460    4.57067317457520    3.13014885924362
C        -3.67693739769313    4.17946921644851    5.07447367140192
H        -2.80634189670295    4.80839650307889    4.95543329467291
C        -3.86153621909932    3.50301526222928    6.30050885980402
C        -2.93408409696439    3.62449454513850    7.36430044118753
C        -1.66911171041362    4.37141106954636    7.18971700804609
C        -1.62037642656218    5.75566365971739    7.49120819337487
C        -2.77068150328988    6.47928176242606    7.87308684348082
H        -3.72482177513176    5.97106536920280    7.90211087916478
C        -2.68387523887154    7.80230712719283    8.20247578899102
H        -3.56944238931354    8.34538224282370    8.49916199055658
C        -1.44764403155831    8.46497293856434    8.16129813800587
H        -1.39710254854602    9.50937932503466    8.43207792815782
C        -0.32035534622210    7.79647030408027    7.77391715372039
H         0.63409312053393    8.30091389033803    7.73278387721209
C        -0.37389045989363    6.43158778646385    7.42469691719933
C         0.77328728407280    5.71620431360374    7.02302995433087
H         1.72043058450816    6.23167918024147    6.97753520441209
C         0.69803762010511    4.38662474232560    6.72464043643534
H         1.58163304461778    3.83999891523503    6.43211219257393
C        -0.52525333711512    3.69096724155692    6.81372269969786
C        -0.54256567279777    2.22996722195040    6.59507266184863
C         0.28254767367254    1.42184157174762    7.37381629446060
H         0.94247698509949    1.87898820147878    8.09830811516770
C         0.25280893591377    0.04625458276032    7.23661834336912
H         0.89080783227461   -0.56644185772660    7.85688561569695
C        -0.58796998975724   -0.54185789079752    6.30656814955217
H        -0.61319031852503   -1.61650280558385    6.20012498759119
C        -1.38509109078719    0.25590771377092    5.50350952442685
H        -2.02782947864829   -0.19401116313826    4.76055769124289
C        -1.36344716270276    1.63168228830586    5.64461993539329
H        -1.97365631783055    2.24393034371144    4.99807874174070
C        -2.48158914404355    2.07698833856981   11.14940092152137
C        -2.11238958282331    0.79893234632776   10.72928435999400
H        -1.71495065689066    0.66622506577179    9.72949495028785
C        -2.26032317586462   -0.27626599131195   11.58203228445013
H        -1.98050278546488   -1.26672607983985   11.25528992795812
C        -2.76066651972464   -0.08021507516023   12.86122295724335
H        -2.87165937511799   -0.92060422718008   13.53003392817445
C        -3.10836933677293    1.19081928217443   13.28617861900906
H        -3.48852364221831    1.34165881920842   14.28582940410002
C        -2.96584300151004    2.27454220072496   12.43618798845357
H        -3.22967031001730    3.26956890635616   12.76763695621079
C        -2.99105317695550    4.86979603661402   10.67835038017609
C        -4.38019847901129    4.92044785881507   10.76403505439780
H        -4.97336972391398    4.07827293249043   10.43467290144947
C        -4.99634344410289    6.05057248928929   11.26662946771825
H        -6.07394238089665    6.08897104806706   11.33323341993616
C        -4.23637856685375    7.13321904355853   11.68168592771340
H        -4.72397008944979    8.01527921515355   12.06935723383742
C        -2.85505228214287    7.08544461672179   11.59785920479289
H        -2.26119645187654    7.92871666960674   11.91680829138771
C        -2.23270878662631    5.95756774248232   11.09512660781979
H        -1.15357072291743    5.91280305125778   11.01255584314240

