43
CSD_code = ESILOH | q = 0 | S = 0 | Stoichiometry = C20H16Cl2N4Ru | MND = 6
Ru        4.50296000461762    3.85392943885145   11.08741562490823
Cl        3.13790070609139    2.07939320174370   10.32827253453671
Cl        6.48103082804581    2.83261252190197   10.29094841506353
N         4.43908751478758    2.85674750895526   12.79210482089147
N         2.84061601535205    4.59659303290829   11.82063927396763
N         5.67687405531056    5.34315132094328   11.59665910718132
N         4.57557861390515    4.80250508603141    9.35585834374110
C         5.35447720175821    1.98928582438752   13.21782917419400
H         6.28992291013285    1.98623024276663   12.67020441513706
C         5.12833187877666    1.12120599564757   14.26799508943740
H         5.89654014409557    0.42629499738470   14.56595893469717
C         3.89579375197611    1.14913582938895   14.91114397944152
H         3.68201912572685    0.47416294107417   15.72542458505164
C         2.94363661009675    2.05148552729797   14.48048853512780
H         1.97414776830340    2.08618875112553   14.95007714060685
C         3.23596787846675    2.90083943814455   13.41292841239368
C         2.33515263811373    3.90850727780445   12.87551392416824
C         1.07288808118670    4.20318170114776   13.39130313805611
H         0.68571501293339    3.63535916261659   14.22129554038379
C         0.32050128928903    5.21241499188559   12.82723664248779
H        -0.66236038467425    5.44507049317738   13.20540042970206
C         0.85911024046702    5.92321987411448   11.75736929842034
H         0.30839943958034    6.72177440391857   11.28695357731539
C         2.10983289643419    5.58042030817874   11.29269575182351
H         2.55111677536892    6.10463572901415   10.45291525324981
C         6.14016452467964    5.60523445059847   12.82031519943106
H         5.71929891157278    5.01514765073296   13.62625168718762
C         7.10647825253727    6.55387929856441   13.07338055598218
H         7.45166127442219    6.71753166796332   14.08151306158050
C         7.63317534008662    7.27933746074314   12.00729778208042
H         8.40043916750581    8.01983099469136   12.16897451588008
C         7.15202207540495    7.02736933705575   10.73938578834149
H         7.53751283221187    7.57245138338587    9.89339735204001
C         6.17122301026380    6.05319074544154   10.55108509370567
C         5.56164648566518    5.72720221248486    9.27137911793807
C         5.91084286414684    6.29947049316403    8.04776431036493
H         6.71139461092752    7.01925096865432    7.99586649818571
C         5.24179960962616    5.91565660103612    6.90263124297502
H         5.50896819096552    6.33582931731092    5.94534980973287
C         4.22709129937371    4.97065120469524    7.00730929246616
H         3.68558445997205    4.63590824398228    6.13748067274840
C         3.92960503687045    4.44364011365128    8.24872614560736
H         3.16405105764106    3.68677225543020    8.37515993177180

