17
CSD_code = EVINPT | q = -1 | S = 0 | Stoichiometry = C4H8Cl3OPt(1-) | MND = 5
Pt       -0.50093890769978    8.30889889471979    4.01739714810511
Cl       -0.05755341352653    6.01933846400765    3.97580476472827
Cl       -1.00254893943028   10.56927769063711    4.02280573509649
Cl       -1.58845550193869    8.11780212440686    2.05288657383913
O         1.86051842170567    9.71498362448141    5.16482128372394
C         0.07552807373297    8.41782460801191    6.07258160491979
C         1.22197179523390    8.52189668697985    5.29330355924736
C         2.54113968887861    9.89437009331835    3.92944086725713
C         2.69636498875672   11.38577551853558    3.68936188313851
H         3.51833828882622    9.38643468731684    3.97001808832921
H         1.94455206038236    9.45021459627590    3.11644639118603
H         3.20274552740801   11.56273283912051    2.74402753439313
H         3.26541242940404   11.83846601013590    4.49769127881795
H         1.70652229973314   11.83341841655164    3.66196000167515
H        -0.14575785870085    7.47299386374314    6.55408512717660
H        -0.28918484635691    9.31598915414813    6.55611717561353
H         1.84674589359136    7.64248272760887    5.09675098275219

