61
CSD_code = EYIZET | q = 0 | S = 0 | Stoichiometry = C26H22I2N6O4Zn | MND = 4
C         0.11283494043305    1.57787324393895    9.77409216904885
H        -0.95164676060371    1.69387347343850    9.62623806705688
C         0.59905189617649    0.71110495828271   10.73321139774052
H        -0.06843681446763    0.12164008604418   11.34098244531500
C         1.97522517490064    0.60902235243657   10.91634108997204
C         2.80058448374999    1.36125241552862   10.08598642628438
H         3.87620044891794    1.29676593316765   10.14435028037302
C         2.21932462469203    2.18871875780631    9.14246934624000
H         2.83701620578670    2.78159839933041    8.48171723294747
C         2.49266531226514   -0.34856357687310   11.95031977118712
C         5.16544097462764   -0.11411139357853   14.21473610006669
H         5.53936116770675    0.89760923878664   14.00010565577471
C         5.84039836317763   -0.85629976563358   15.25109359000052
C         5.41984675218222   -2.14322481180848   15.59897688517842
H         4.57812011127546   -2.56810737498264   15.07640874445003
C         6.06959067597267   -2.84678303375868   16.58806799166591
H         5.73943803604231   -3.84240758894112   16.85387197114361
C         7.15674807630069   -2.28179255338723   17.25383864037306
C         7.58209005499265   -0.99825656811791   16.91347993322868
H         8.42400744988365   -0.57661548013273   17.43883766214465
C         6.92966276749069   -0.29683365275247   15.92446642662112
H         7.26523825950871    0.69736017401047   15.66670610187854
H         3.93708777454610    1.06329464661801   12.42305651102043
I         1.92996357258524    4.71633883855218    6.31817307719904
N         0.90434270978705    2.31067596170816    8.99585523211701
N         3.59238118441132    0.11736852968191   12.61199310052781
N         4.18412555472590   -0.60901876443471   13.57512372475871
O         1.96418768800762   -1.41334006109743   12.15989134433022
O         7.82490047281375   -2.93831088938995   18.23084403934502
H         7.43655592318117   -3.81068843503914   18.37314283136657
Zn       -0.00031020835650    3.81048724894016    7.65746886108859
C        -0.11309040920001    1.57789852003305    5.54065691052541
H         0.95136205845277    1.69355844179170    5.68896235019561
C        -0.59920242962118    0.71064782204645    4.58194037700836
H         0.06844741424615    0.12040758112682    3.97509749123408
C        -1.97533924871085    0.60869356914072    4.39861299899168
C        -2.80075561819812    1.36155682618718    5.22825533798778
H        -3.87636105627846    1.29756485391868    5.16939780141042
C        -2.21959391369789    2.18906517678448    6.17176508391218
H        -2.83733318744010    2.78336080186412    6.83117732430394
C        -2.49277570614926   -0.34941047870206    3.36521102391587
C        -5.16474538505635   -0.11488179528995    1.09992090378021
H        -5.53833794205230    0.89700205731135    1.31438306475924
C        -5.84000232500459   -0.85678787558290    0.06358864216763
C        -5.41960824452347   -2.14357315282451   -0.28494956912389
H        -4.57786793270762   -2.56880891981394    0.23732261897380
C        -6.06964126780639   -2.84670999215261   -1.27415636859439
H        -5.73964776817060   -3.84228406737068   -1.54036687493661
C        -7.15695168816409   -2.28139522758727   -1.93940071641282
C        -7.58207233494708   -0.99793752013710   -1.59846284528735
H        -8.42402549044730   -0.57599730528104   -2.12349796446273
C        -6.92938046542772   -0.29695548975144   -0.60932220445526
H        -7.26474060245260    0.69722477004832   -0.35124717678584
H        -3.93665955485020    1.06251839483000    2.89144677090609
I        -1.93056773486138    4.71564617320213    8.99690251095614
N        -0.90465828230547    2.31091492144451    6.31859997401459
N        -3.59207363687719    0.11648987197675    2.70286532754125
N        -4.18362403269271   -0.60995564744854    1.73965319974204
O        -1.96422231355157   -1.41428878775542    3.15629613447685
O        -7.82542702507624   -2.93745486111315   -2.91649572990865
H        -7.43710074918221   -3.80973896921030   -3.05940304731447

