33
CSD_code = FAPVIE | q = 0 | S = 0 | Stoichiometry = C12H17Cl2NPt | MND = 5
Pt        1.10681782083479    2.91550553255340    8.32122734220443
Cl        2.89358196513258    1.76089236913783    7.36783413408967
Cl       -0.83956313712849    4.07536467547184    8.88220639875940
N        -0.04480166262920    1.89126236203083    7.08658342423854
C        -1.80008307222945    0.32396326453617    6.75614856966380
H        -2.51838525946738   -0.35233847921896    7.19129543477201
C         2.35444636992112    4.33974847816582    9.21895439664413
C         3.69228182788045    6.39520113118152    9.37156994369865
H         3.91549921809554    6.04084571657927   10.37367766564561
H         3.21153067348679    7.37014399132503    9.43933948971452
H         4.62441880256339    6.51505471238572    8.82132337883471
C        -0.95093824373162    1.04567073820704    7.57473031606885
H        -1.00108823915654    0.95279215796252    8.65336168799524
C        -1.71236973611792    0.49049519210696    5.38243310758585
H        -2.36400492418962   -0.05549199082701    4.71764721628891
C         2.79367438450126    5.43350866774308    8.64518087616193
C         2.43064004889482    5.79349771310132    7.23258133734402
H         1.71835651963444    5.06750748866940    6.82981251367284
H         3.32126669346730    5.80014905945155    6.60560904593047
H         1.97909464608833    6.78377203718532    7.20065943951052
C         2.19652664394803    3.42122132501435   10.21559208413546
C         0.04897769178940    2.05376008081875    5.76853320192896
H         0.80868876467159    2.74027162340917    5.41386435166319
C        -0.76849418611858    1.37455705160530    4.88334400469698
H        -0.66241207269117    1.53722389950563    3.82276259738345
C         3.25013758387930    2.37635076040266   10.50808217496805
H         3.99229576598551    2.32706579878432    9.71623598511281
H         2.80089359348864    1.39098696118068   10.63284315982639
H         3.74636013683322    2.63923522564702   11.44287726720359
C         1.21240868674237    3.63486893910524   11.34373949910751
H         1.77015854258863    3.89654136288417   12.24356621543107
H         0.65187272373292    2.72327839816684   11.55041154352442
H         0.51381142929917    4.43519375572690   11.11687219619190

