63
CSD_code = FELQEU | q = 1 | S = 0 | Stoichiometry = C24H28Cl2N8Rh(1+) | MND = 6
Rh        5.57545732344589    3.50790877698178    9.43659287156283
Cl        6.30743216660402    5.07929457640930    7.98384779314258
N         4.94159237457621    1.56828320820596    7.46415593491748
N         5.94980634364758    1.98492683791362    8.14185391063688
N         3.88409882993740    3.43681913040993    8.40252595875636
N         2.72502356944494    2.34283662811235    6.86736231827860
C         7.06317453569904    1.16503091719144    8.18429315044908
C         3.88632207007077    2.39023035836773    7.55478667199942
C         6.94131443398545   -0.23013374901571    8.17946137888429
H         5.95624675475563   -0.66723763673350    8.11493056050344
C         9.45004493995804    0.94645062448306    8.34266966801365
H        10.42876856818511    1.40127910677536    8.37334516909355
C         9.33822055195185   -0.44303325303004    8.38305486975390
C         8.06727658328896   -1.01387486082315    8.29210109998503
H         7.96946099359663   -2.08909529815754    8.30842486598627
C         2.70784850483145    4.07316505477512    8.23927311733409
H         2.45765662632511    4.95798506451166    8.79196850700598
C        10.54702794214682   -1.30919822665295    8.48903168268270
H        10.78010456286370   -1.73031815368332    7.51078321824336
H        10.37338831520976   -2.14047891527994    9.16876080097613
H        11.41152419994701   -0.74386454653862    8.82569158647765
C         8.33359735119466    1.74822891535746    8.24981157539370
H         8.42149220430052    2.82206371191659    8.17008096944852
C         1.97897418229814    3.39543863112978    7.28977647377042
H         1.00751261794629    3.60132072609146    6.88911477751988
C         2.34022356074762    1.30559468959616    5.94139132063614
H         3.23364500679735    0.99182447226934    5.39792822229505
H         1.61726247221777    1.72360637742173    5.23864375622516
C         1.73678074019292    0.11997350295681    6.68902862014260
H         2.45780465888718   -0.28814701954935    7.39352638014865
H         1.46197940428769   -0.65491056408269    5.98019224745860
H         0.84731953171707    0.42298846453823    7.23589537089950
Cl        4.84338171698050    5.07929810355159   10.88930914514990
N         6.20930753984159    1.56827850518898   11.40901486428248
N         5.20109274674934    1.98491902992203   10.73131730795019
N         7.26681820348799    3.43680792002661   10.47063985158315
N         8.42588010152457    2.34282477791010   12.00580923128664
C         4.08772392543550    1.16502714609617   10.68887651387134
C         7.26458184797193    2.39022196314668   11.31838345475251
C         4.20958648891959   -0.23013689218536   10.69370142620489
H         5.19465467090601   -0.66723736901678   10.75823126759262
C         1.70085404351167    0.94644200988248   10.53050247353524
H         0.72212934367693    1.40126762581653   10.49982814585867
C         1.81268098166087   -0.44304149182024   10.49011263912623
C         3.08362608060736   -1.01387970198897   10.58106042780410
H         3.18144315775958   -2.08909937405735   10.56473989640640
C         8.44306478046895    4.07315439344240   10.63389949549141
H         8.69325662351928    4.95797864081257   10.08121051034952
C         0.60387758409246   -1.30921097260816   10.38413359224154
H         0.37080586773596   -1.73033585620982   11.36238054268288
H         0.77751947323409   -2.14048807913105    9.70440146678318
H        -0.26062162412419   -0.74387972235777   10.04747873784822
C         2.81730058415156    1.74822219288058   10.62335990301970
H         2.72940175504473    2.82205627390528   10.70309298556178
C         9.17193304756553    3.39542668581324   11.58340077169237
H        10.14339306322996    3.60130790521284   11.98406769159608
C         8.81067564050090    1.30557909358532   12.93177759761043
H         7.91725719124991    0.99181413823393   13.47524822812058
H         9.53364593497829    1.72358683293229   13.63451760030148
C         9.41410463406179    0.11995610786386   12.18413281229682
H         8.69307218017556   -0.28815907936166   11.47964112393950
H         9.68891003067242   -0.65492923869644   12.89296635707435
H        10.30356046338900    0.42297087935561   11.63725908937140

