37
CSD_code = FEPNOE | q = 0 | S = 0 | Stoichiometry = C13H15BrNO4P2Re | MND = 6
Re        1.74189933619695    3.81784456401512    2.71005364075462
Br       -0.50987052541988    3.48639251873035    3.89503471339460
P         0.42115295597452    5.49146418999129    1.58235315703707
H         0.87495765925976    6.27665580503411    0.52933762092158
H        -0.65595371502702    4.95793579463961    0.87365101451282
P         1.92915962565228    5.49718484083267    4.43220226486013
H         1.89620635688879    4.95910335313869    5.72067853397249
H         3.05786590145458    6.27298929406471    4.66173176708415
O         2.22311324848389    7.06380392816551    2.48090801786969
O         3.06478429818264    1.70377894227180    4.54658695895013
O         0.96647256617130    1.69449471899988    0.59291940941456
O         4.35125295046367    4.72308199340000    1.32890000361294
N         1.70477353401835    9.27621845882539    2.67941159164271
H         0.99993030765018    9.91761564170181    3.02164945020534
C        -0.59862833697048    6.71841198373756    2.51000376212546
H        -1.07393748370488    7.36757577437551    1.76572300336063
H        -1.38326393258905    6.15002522491981    3.02221829664536
C         0.18878585461544    7.55659089282733    3.52554586027062
H        -0.41194158908893    8.41681466858477    3.84112532859998
C         0.58640807283326    6.72269979344891    4.74950968384892
H        -0.27695914601489    6.15317252256211    5.11159555425528
H         0.93289701788480    7.37461437826505    5.55956949596756
C         1.47491705093104    7.96946030245961    2.84347394539540
C         2.81382212750523    9.90796365909378    2.07963157471957
C         3.89608925698197    9.20474521863118    1.56442685840191
H         3.91734900108028    8.12889246891967    1.60814241397400
C         4.94817504020149    9.89925839745877    0.99308875914530
H         5.78643069285309    9.34862575981890    0.59492382950456
C         4.93205687971586   11.28181774711833    0.92997076295538
H         5.75669112701612   11.81471858436679    0.48249398621375
C         3.85181478896350   11.98040045875959    1.44412964764841
H         3.82976394593953   13.05860713636010    1.39954758618751
C         2.79582214620072   11.29864529512660    2.01755116761391
H         1.95278509671890   11.84411357831589    2.41936521961191
C         2.60143056502671    2.47528245067365    3.84158279421836
C         1.29103780904704    2.47021184736049    1.36740888433901
C         3.39420951487132    4.35718781300517    1.83475344074361

