50
CSD_code = FESDUD | q = 0 | S = 0 | Stoichiometry = C24H20CoIN4 | MND = 5
I         2.06077675515119    1.10158387327014    5.17806364989165
Co        1.28901508900890    2.70600670825712    3.37389445443746
N         2.94241494946904    3.02856368340970    2.67402146524485
H         3.51524081706020    2.43151083357014    2.07723926104614
C         3.56518395439320    4.12091153643008    3.10012811488578
C         4.86820961942848    4.54617245052177    2.77154465287137
H         5.46554418598693    3.94989634832653    2.09668591855381
C         5.34612847048987    5.70582026456006    3.31579874557044
H         6.34109787235860    6.04640061713467    3.07203133330580
C         4.56344792228624    6.46554641309249    4.20659450700431
H         4.98117893729103    7.36712301311707    4.62859861890052
C         3.29760033701623    6.07925368721629    4.55358919964104
H         2.71101190144223    6.65804514689336    5.25081174619977
C         2.76288525130971    4.89906502011839    3.99670740658201
N         1.57098464285590    4.33910587899238    4.23327626497029
C         0.66383276573598    5.01520265478198    5.06486115175161
C         0.24794355089538    4.45628056783486    6.27276403282432
H         0.65899961452028    3.51080430533032    6.59145087033169
C        -0.67241367696080    5.12025719063490    7.06261208830498
H        -0.98257841047274    4.68032208496700    7.99854804266155
C        -1.19086335849209    6.34036782680143    6.66218581310285
H        -1.91033636150879    6.85467415486338    7.28132393633096
C        -0.78017492726542    6.89999072419292    5.46279161104795
H        -1.18033503830004    7.85086481132325    5.14311825864182
C         0.14124263126562    6.24691761181651    4.66758260181370
H         0.45625396839607    6.67341979509986    3.72550188210706
N        -0.49504584369486    2.65548756193871    3.75853113001002
H        -1.01277543194381    3.16057180827231    4.47860404764462
C        -1.20983841171056    1.72743298565647    3.13237654184010
C        -2.57354599011057    1.42523975879737    3.31731646053100
H        -3.14884424373200    1.99152437386123    4.03588369126998
C        -3.13950042524260    0.42419759329441    2.57702783543818
H        -4.18355079442090    0.18219970469779    2.70633200755883
C        -2.38141595848516   -0.30201815648670    1.63873436949903
H        -2.86515960106934   -1.07965289189342    1.06711157001765
C        -1.05301760456697   -0.04126759414767    1.43860497732920
H        -0.47876517740136   -0.59513336591209    0.71111291789751
C        -0.43437562409110    0.98056726776620    2.18725908758826
N         0.83657246175800    1.39164930286158    2.12508863080100
C         1.73622043995604    0.64960189188672    1.33970015735271
C         2.31689375693282    1.22121426507243    0.20881951671973
H         2.04350801985133    2.22900479387571   -0.07215075983143
C         3.22013113814265    0.49784526180393   -0.54762695250805
H         3.66047590238121    0.94637186190114   -1.42615309027672
C         3.55881195187388   -0.79487569385966   -0.18259532511259
H         4.26974393390523   -1.35406486645344   -0.77191031520239
C         2.98427651762225   -1.36616046028619    0.94127089773075
H         3.24735239672821   -2.37164408040202    1.23287036614736
C         2.07291016101254   -0.65521581476203    1.69826036925406
H         1.63384696294422   -1.08948271003941    2.58390624027847

