60
CSD_code = FIBVAP | q = 0 | S = 0 | Stoichiometry = C28H25Cl2NO2PRe | MND = 6
Re        9.93035246825061    4.67175189277486    3.87207078445199
P        12.22679524933322    3.91411027118544    4.52603504099004
Cl       10.28543306805768    3.59681535883170    1.85825874458474
O         9.44127086907829    3.06484627497297    4.67630959402158
C         8.82765196912647    2.58423383002859    5.71142680549513
C         8.81325272632178    4.83453324712298    6.79360339294215
H         8.51817638475325    5.37596366433122    7.69824462499570
C         8.48060138910844    3.43701199985185    6.79616128044184
N         9.44029709883710    5.47452099928308    5.87941569513367
C        12.34814056168961    2.13478596717912    4.85794801537719
C        11.77646519854116    1.27555831658910    3.92120169792508
H        11.29403605376282    1.69020298828092    3.04456403821418
C        12.98298281900256    1.61505311045832    5.98161448748664
H        13.44548271278784    2.27508846128669    6.70237194609383
C        12.77176126255731    4.73999745804368    6.04421797194166
C        13.71483901037988    5.76218087476279    6.02095624197503
H        14.20994296981308    6.01073521675912    5.09319169060687
C         8.50537252614797    1.21901935631817    5.79181402571261
H         8.77767535145461    0.58606030653575    4.96080324498376
C         7.81589034040511    2.88999745870541    7.89991300735062
H         7.54978302275960    3.54268436770800    8.71988340447735
C         7.50146306136980    1.55147826026882    7.95223511018520
H         6.98546282440218    1.14806308972961    8.80961202722676
C         7.85049837681341    0.71765435544711    6.89222963513250
H         7.60437248337268   -0.33297474888944    6.93367957499967
C         9.70904754173059    6.88107237692008    6.06901932918706
H        10.77558330026743    7.03860496871679    5.88756452583521
H         9.46968035716818    7.17628285576704    7.09997025485024
C        14.01356010078432    6.45283963149667    7.18251456153393
H        14.74940954464864    7.24279389529609    7.16190697089006
C        12.11715006370804    4.43406849538071    7.23766200429547
H        11.37351873670998    3.64723334550214    7.25215519684619
C        12.42086854758022    5.12630224450197    8.39386547171908
H        11.91683656164448    4.87998939418665    9.31704812312913
C        13.02651874959263    0.24518543666060    6.17297153479285
H        13.51872841558656   -0.15623557609776    7.04682125372835
C        11.82458284754597   -0.09143831913396    4.12302905511488
H        11.37708068016031   -0.75564949611277    3.39867749223736
Cl        7.66613674947385    4.95672736759229    3.37045295164320
C        13.36968719363552    6.13728754014403    8.36767836650049
H        13.60411676661683    6.67981291031331    9.27117119988717
C        12.44304898033424   -0.60789909393654    5.25071857346864
H        12.47493037975567   -1.67555031408877    5.41025879495771
O        10.48383754674107    6.13488242820137    3.32913278832985
C        13.52965409404839    4.23606120485168    3.30614041750086
C        14.71419050185522    3.50539819016107    3.32653101509460
H        14.85928835878406    2.73058745661308    4.06685915722948
C        13.33308051095483    5.22647648517942    2.34940960612395
H        12.39837774309837    5.77434742493591    2.33646309560641
C        15.69793281649903    3.77278373076293    2.39243640701612
H        16.61702172660374    3.20553881367939    2.40393842770372
C        15.50345456545684    4.76101692250359    1.44009512087696
H        16.27272821030769    4.96048758573502    0.70890146104894
C        14.32312966273683    5.48661265766665    1.41894762594858
H        14.17010925806739    6.25023455262823    0.67168498629470
C         7.58047700585077    7.73974129218898    5.11334415372860
H         7.00347949156569    7.18771280990213    5.83774175951996
H         7.01969952500550    8.30640728497941    4.39220930275774
C         8.89955801697656    7.70325587140178    5.09148472800612
H         9.46039565037835    8.23475524794617    4.33863220383765

