27
CSD_code = FIMDIP | q = 0 | S = 0 | Stoichiometry = C8H10Cl2N4S2Zn | MND = 4
Zn        4.31353625865578    2.67397865740858    3.44341653140989
Cl        6.17356955621476    3.56240671638805    2.77485196884205
Cl        3.81777029620971    1.82133913989328    5.43861115599688
S         1.20092720129093    1.71606726985383    1.70675356253872
S         0.92540411314714    2.06523091510058    3.69924536834297
N         3.83818573718015    1.10067007858249    2.13803455527955
N         2.73204251216134   -0.43269685458147    1.01204226442069
N         2.75298205442520    4.07259851450733    3.40414647809008
N         0.94422267083129    4.66411070272419    4.51430453158428
C         1.59169393495814    3.66890985623648    3.88011736248375
C         1.66871138860824   -1.10518617228323    0.32128458802002
C        -0.30892992361287    4.56671856402604    5.20631953489101
C         1.75527532968278    5.76056793379850    4.44185088148989
C         2.86545110709042    5.38327577071837    3.74586064597444
C         4.69329015238463    0.09300446458088    1.83255196347754
C         4.02225861198189   -0.86087143464232    1.12443495096211
C         2.66764448753564    0.75966755512085    1.63960036267488
H         3.73070211547977    5.94768723533242    3.46275505399072
H         1.48512100092187    6.69556049941228    4.88668508271770
H        -0.81173870428818    5.53218694902863    5.18178218776513
H        -0.93163973872689    3.81352188175017    4.72313113767461
H        -0.14786614047708    4.27139333303410    6.24532169120466
H         5.71907516597612    0.13199011011250    2.13848171294779
H         4.35098383006075   -1.78850722347502    0.70412786736510
H         0.71175723395710   -0.74277584379233    0.69442585780080
H         1.72452046311053   -0.90741412326475   -0.75122284270978
H         1.74684928523891   -2.17853449557150    0.48988554476244

