36
CSD_code = FOGQEX | q = 0 | S = 0 | Stoichiometry = C14H14Br2CdN4S | MND = 5
Cd        1.86673010755018    3.42460685336386    2.29413232432580
Br        0.24307729158919    3.68323534777472    0.42079311748096
Br        3.85031574348948    1.82190553864356    2.25614617184923
S         0.87073349413300    2.86658178437184    4.94534302680411
N         2.95601467560454    5.65964096590030    1.99588443592803
N         3.31089440282071    4.32226369199825    4.28267275741826
N         3.45936882726744    3.34599894692834    5.18360706941393
N         2.70770035988362    1.51224843689495    6.32033744482900
C         2.61683147006546    6.48661685414853    1.02005098936897
C         3.27424156871552    7.68618507591324    0.78657563775108
C         4.32487346113791    8.03436291782738    1.61955851520780
C         4.68430408225757    7.17183216247712    2.64099244230762
C         3.97607765726211    5.98184830094653    2.80140641003657
C         4.30281379013061    5.00646066326287    3.85094268278535
C         2.40276617953641    2.52682736088441    5.48884216521441
C         1.90176470042149    0.43649042695440    6.73645385331819
C         2.16378385297288   -0.11602089380089    7.98743388584376
C         1.42238435486325   -1.19028764102095    8.44013773136123
C         0.42192456162573   -1.72747716699696    7.64702087992019
C         0.17844558169497   -1.19278602714135    6.39355619332321
C         0.91418167201025   -0.11675164063719    5.93129951995710
C         5.72542791990258    4.79776736814239    4.27934294080948
H         1.78823774218122    6.17352143382853    0.39603042269130
H         2.96702459047699    8.32511303942414   -0.02522397312961
H         4.85705784813516    8.96333781093314    1.47914178169062
H         5.48315737980711    7.43042499379866    3.31801976174689
H         2.94706856417962    0.30149715363244    8.60470802400618
H         1.62795918407333   -1.60844165465332    9.41390316042658
H        -0.15882374471529   -2.56482748678322    8.00198400305148
H        -0.58656146313248   -1.61849899251970    5.76285487280177
H         0.72888873273953    0.27928239046470    4.94669958797670
H         4.39994714675707    3.01970782455683    5.41114858301100
H         3.63371939446629    1.51522272556441    6.73207561433796
H         6.01297555965955    3.76840819181584    4.05299990649470
H         5.84347271490605    4.96934082559304    5.34993451061381
H         6.39872059551709    5.45386241750706    3.73949354901579

