37
CSD_code = FOPGAV | q = 0 | S = 0 | Stoichiometry = C15H15Cl2N3OZn | MND = 4
Zn       -2.05679516509639    2.63658935745584    6.52836333633914
Cl       -3.08374364824807    3.77917174197680    4.94872587360360
Cl       -1.40984074201588    0.56106138065818    6.73316651730061
N        -0.60647207967658    4.05058563550365    7.02664040106242
N        -2.71308611694552    3.20199222061091    8.51257734400477
C        -0.96671529951790    4.71423003836833    8.12887524871831
N        -0.32162697720761    5.91019842261673    8.17086752470910
C         0.48622117842140    5.97908592430569    7.03595540249248
O         1.93545186849942    5.09466332086984    4.67448255100093
C         0.27123687904476    4.78698818128632    6.34270222384283
C        -3.60374191291775    2.58420548907681    9.26825660114175
H        -4.20975765111920    1.84111271446271    8.76944725044433
C        -1.91188722158174    4.13269744112182    9.05366944604160
C        -3.76253035099670    2.85731031480394   10.61728125929715
H        -4.50877307441567    2.33795881552789   11.19555153174391
C         1.28016962641594    7.11387162752081    6.80617184560017
H         1.90755153075923    7.11262858497884    5.93111237537359
C        -1.98002429294213    4.43461225150096   10.41672829616251
H        -1.28023420446407    5.12029703061116   10.86559598184217
C        -2.92010927400229    3.79177061148618   11.20046811236313
H        -2.98480167347245    4.00843472722603   12.25635001373727
C        -0.41405410490416    6.97826028820787    9.01491052657358
H        -1.12140603313526    6.91192232371273    9.82411725140875
C         0.82072977271911    4.32388970069605    5.04066733009487
H         1.08479451716993    3.25642206543801    5.12340320771227
H         0.02363161739556    4.40480962227660    4.28028929206041
C         1.21907969711214    8.15470861542875    7.68460713974614
H         1.81486956188628    9.04060067754303    7.53805585134841
C         0.33999863379655    8.08430689003919    8.79139444700811
H         0.25805464025586    8.92239278151113    9.46429529491260
C         2.48295077292090    4.70941443066669    3.42791274431314
H         2.80752080022011    3.65894996350114    3.47393082954829
H         1.71574246417968    4.79427264407149    2.64359945349201
C         3.66240297735942    5.61663306768730    3.11933441685536
H         3.33112029857990    6.64950835440196    3.05423483441823
H         4.11251893100819    5.32786170678630    2.17414191652517
H         4.40595405491275    5.53818103605333    3.90771632715847

