66
CSD_code = FULMUV | q = 1 | S = 0 | Stoichiometry = C27H33ClPPdS3(1+) | MND = 5
Pd        3.77297089386616    3.93190461217740   13.13900661316131
Cl        4.92363342451478    4.00131350019866   11.18421488661137
P         2.57433757627850    3.83925364536483   14.99434389185290
S         3.21505086740449    6.20011420409210   13.00658714157178
S         3.27260726899606    1.65038215975753   12.76709502270744
S         5.75363267430472    3.70425719578377   15.35295278669774
C         1.39947944149872    5.23074188855404   14.91448363234544
C         1.80155657593735    6.30769134654292   14.11398471824845
C         1.03649472167640    7.46151964228966   14.05289824921920
H         1.35708343702485    8.28011607431229   13.42702596730015
C        -0.14277545372819    7.54829724989862   14.77366794327724
H        -0.73521532316727    8.44811798849525   14.72571333660381
C        -0.57673286387081    6.46649806023348   15.52244383182898
H        -1.51601194310377    6.51731869852109   16.05081940145366
C         0.18823932446096    5.31485566448106   15.59461063161084
H        -0.17665601845771    4.47088332308698   16.15928402525553
C         1.70444691782034    2.23225262360662   15.03239140875642
C         2.05127837353622    1.30175903054694   14.04606594805133
C         1.51935892835627    0.02078509598406   14.07514632274011
H         1.83880284835328   -0.70547756955420   13.34497975112875
C         0.60516301377536   -0.33034644846042   15.05348425309207
H         0.18880816829732   -1.32511851217026   15.06507150172714
C         0.25272156331817    0.58573413964622   16.03084749764046
H        -0.44392975243556    0.30902130660767   16.80667189975185
C         0.81511832442244    1.84956494795762   16.03318582305529
H         0.57482031958839    2.53203822573103   16.83267819916549
C         3.32321874882351    3.90878034494605   16.65798752137825
C         4.69727668146687    3.67237155165070   16.78976087543204
C         5.26544403416055    3.56250056502249   18.05041216626094
H         6.32583936248127    3.38445646235214   18.13900005042320
C         4.48044071783681    3.70427808937225   19.18022291743079
H         4.92612912513458    3.61020005087698   20.15792778892692
C         3.13448591863337    4.01334248601720   19.05579681261658
H         2.53288825016990    4.17520892080869   19.93665004471330
C         2.55857634417277    4.11709057229151   17.80290702930122
H         1.51666991979412    4.38531339089138   17.71521227175015
C         4.51957143573007    7.23468187111285   13.80927267531687
H         4.30022835289566    8.25616508783273   13.48781675971466
C         4.47202436486601    7.12092915107436   15.31711782595618
H         3.52545509397589    7.47683203073715   15.72065156881948
H         5.27179592960246    7.71997022774383   15.74668086885794
H         4.62450175514508    6.08528430442480   15.62132345236898
C         5.83165342534812    6.75013904200058   13.22092803025710
H         5.83595627085076    6.86276342339573   12.13817025460927
H         5.98368485144374    5.69046910288370   13.45871182625916
H         6.66009678130610    7.32197052262985   13.63197490011301
C         2.21235774166750    1.94245295132879   11.27196068012288
H         2.97472693643139    2.17978401044493   10.52229104636345
C         1.46540037186916    0.68145298332305   10.88517859788256
H         2.13550627331559   -0.17403142412601   10.84365113206875
H         1.03412398947139    0.81587932827218    9.89545218425310
H         0.65531315922056    0.47276371569144   11.58158972471716
C         1.28805659076205    3.13325383554749   11.47756944033722
H         1.86059427914979    4.07357658625548   11.52171285957855
H         0.68091252887535    3.01625835812938   12.38067853017261
H         0.61045097925240    3.20452384225310   10.62818636551230
C         6.50687900316303    2.01865775087207   15.26690042298154
H         7.32745642810766    2.00587485733957   15.98716148943941
C         5.48115210439046    0.95535049152022   15.59910467780915
H         5.11711699712452    1.05352504659261   16.62058178535779
H         5.93175929984878   -0.02861069339233   15.49020467254008
H         4.63364346638621    1.02076596827789   14.91574445846647
C         7.02704485418197    1.91429853040434   13.84387138924391
H         7.81648273996357    2.64177787484450   13.66860099071356
H         6.21794077138000    2.10845668107736   13.13191263926966
H         7.42366081291593    0.91976401359977   13.65716658779887

