29
CSD_code = FUPVOB | q = 0 | S = 0 | Stoichiometry = C10H8Br2N8Zn | MND = 4
Zn        4.45190314682657   -1.19022596684056   -0.39154725851958
Br        4.19403184025825    0.50969310475550    1.25201502706676
Br        4.99118970793141   -1.67483059049984   -2.60138994537291
N         0.63532292504088   -3.04488319527866    0.56381234819167
C         1.92980646871226   -3.26137161212981    0.64487993528258
N         2.68890394721700   -2.34865562523570    0.02222422398221
N         2.05463719643970   -0.40025446943754   -1.17825640533130
C         1.01478372593053    0.29829414841189   -1.55836208439260
C        -0.30908939989029   -0.07797879791836   -1.25647532275191
C        -0.53464557744425   -1.21878443835472   -0.53373840731581
N         0.54096294745481   -1.92359037448089   -0.14829250352817
C         1.81439579265229   -1.49377590001076   -0.48224213891993
N         7.91362302110250   -2.52590280036268    1.73426888110959
C         7.29148570264332   -2.32764666514830    0.59529301959614
N         5.95183578166825   -2.30712214570099    0.68449002742105
N         4.55146973718749   -2.59848589831643    2.60015191415971
C         4.59714901787313   -2.76633721986610    3.89660769259078
C         5.79822343796193   -2.87060418497047    4.62467002290472
C         6.98711966283554   -2.80895484988754    3.94997122685136
N         6.93007327428999   -2.63375831077891    2.62151064731493
C         5.70711438285663   -2.50871479979832    1.97181491195476
H         2.34379573891273   -4.09770997115868    1.16935136064456
H         1.22901772147247    1.19409389683482   -2.12227139080748
H        -1.13394676886420    0.52853045775753   -1.58941411912410
H        -1.50581571614961   -1.59273682135418   -0.24785894711052
H         7.81195247754197   -2.19620576601557   -0.33288084328160
H         3.64026925970775   -2.82276187652921    4.39497251975047
H         5.78076157679867   -2.99921127667675    5.69326703355585
H         7.96496897103157   -2.88590805100080    4.40032857408290

