69
CSD_code = FUVLEN | q = 0 | S = 0 | Stoichiometry = C36H26Cl4O2W | MND = 6
W        -9.06653557373727    2.53225267056854    2.64912300802802
Cl      -10.31060808766370    1.17940598551053    1.12195925032092
Cl       -9.42048326813817    4.20205481638470    1.09831147895403
Cl       -7.24480229206600    1.93010612150856    1.37445636034601
Cl       -7.52536603458549    4.07032528865767    3.64230542626240
O        -8.52847029785393    1.40226477058648    3.90336766430035
O       -10.63290134597539    2.94052178928146    3.36531614292241
C        -7.48343496414436    0.90722903745682    4.60206800496198
C        -6.71814268493979   -0.14865318757161    4.07507135180458
C        -5.59420594423527   -0.56670820361551    4.78316421602992
C        -5.22052456408163    0.04812154272870    5.96315327652668
C        -5.96914133982855    1.09588936838090    6.46663126081653
C        -7.11033475671726    1.53367670239439    5.80528495920038
C        -7.92724179862073    2.63288066835035    6.34662806837663
C        -7.34148227934400    3.79349924371822    6.84493537169205
C        -8.13116873009236    4.80628754648882    7.35619509909516
C        -9.51002942828589    4.67488743790966    7.38705929930117
C       -10.10152007990254    3.51773922221119    6.90651958149015
C        -9.31391875219332    2.50555858936372    6.38556805601983
C        -7.09194555110688   -0.78958380524460    2.80423152151529
C        -8.43006496011509   -0.99910228750573    2.47177087787852
C        -8.76994422766677   -1.61585286427765    1.27988065772000
C        -7.78239753322215   -2.00847218777699    0.39399055709898
C        -6.45065976863787   -1.79287188159400    0.70938374278391
C        -6.10546872183836   -1.19496741211378    1.90539173040337
C       -11.92512681090908    3.28326223907913    3.17662070978553
C       -12.89462124796356    2.27062880445615    3.05112300738583
C       -14.20711099351425    2.63094342912287    2.76623651315034
C       -14.56109893059040    3.95894518498671    2.61744042515740
C       -13.60311724705022    4.94812561626767    2.73421503186496
C       -12.27390253114783    4.63484186503127    3.00474060891675
C       -11.25531539099973    5.69259725874128    3.09985634617211
C       -11.29439020307644    6.78140154815512    2.22917800083700
C       -10.34218028458058    7.77807591688622    2.31158288362173
C        -9.34545784385927    7.71408299666805    3.27183063301994
C        -9.30029209140370    6.64190322233077    4.14499973892782
C       -10.23924330161777    5.62844049321041    4.05245842839425
C       -12.51858480700129    0.85734749870537    3.21709156202358
C       -11.64690276360957    0.48595130997391    4.23901020855978
C       -11.30461203421823   -0.84210655601458    4.42698590363556
C       -11.81161618550955   -1.81402568831668    3.57976560531738
C       -12.67333498043145   -1.45178947282131    2.55766367957424
C       -13.03221250230074   -0.12913935337915    2.37888262849454
H        -5.01725454067545   -1.39428733689072    4.40037039572593
H        -4.34472124007616   -0.29249056839249    6.49387087240352
H        -5.68696605812768    1.57469931562044    7.39172379674420
H        -6.26989819454873    3.90858790530156    6.80143169247324
H        -7.66910647330469    5.70619335100478    7.73382602293924
H       -10.12331122123108    5.47031559991431    7.78323476947695
H       -11.17613728158925    3.40196106344815    6.94326232627992
H        -9.75665735512356    1.57056449816705    6.07143058466138
H        -9.21604125785539   -0.71956591388520    3.16444184360136
H        -9.81159796464967   -1.77091744128636    1.04448093910722
H        -8.04936629575492   -2.47434126811039   -0.54245631316298
H        -5.67668236570273   -2.08659857951860    0.01589378573076
H        -5.06739065990106   -1.00479677563075    2.13147123719589
H       -14.95345459771671    1.85609477497086    2.68186497424412
H       -15.58681343670410    4.22356569951617    2.41106194925649
H       -13.88118051251661    5.98535671425131    2.62842246333972
H       -12.05358859398976    6.82358431393838    1.46310214069497
H       -10.37428600402004    8.60663852044035    1.61971588019483
H        -8.60202944043916    8.49426333407056    3.33426751764031
H        -8.52556640136431    6.57673221080922    4.89311600246440
H       -10.20361025741003    4.80610759236789    4.75893293528894
H       -11.29807080818754    1.24552768388967    4.92560642636980
H       -10.64792021178402   -1.12101643774575    5.24006555629206
H       -11.53374077660740   -2.84829337869849    3.71696005664382
H       -13.06870771406375   -2.20737746275128    1.89534300048040
H       -13.68818720187247    0.14881730030566    1.56891026522678

