53
CSD_code = GARBIN | q = 0 | S = 0 | Stoichiometry = C20H18Cl2N6O4S2Zn | MND = 4
Zn       10.99049964803586    3.15409619680538    6.84107596011597
Cl       10.99048290905963    1.34600142088274    8.09297468923556
Cl       10.99057963439934    3.71827849809055    4.68808974416052
S         7.25148551119589    6.52379996420386    2.03854447236216
N         5.53016826807287    7.59309143274454    3.82697018680465
N         7.10552242914372    6.06853737451155    4.67005367951956
N         9.22184282740268    4.15427694866696    7.54078705346269
O         7.85204897461293    7.76897213109956    1.65680492263703
O         6.21963244552220    5.97953899165237    1.20307693656525
C         6.54002252407296    6.75808326360289    3.70732337619401
C         5.04332072373459    7.75930331459513    5.04625310880990
H         4.21864617495246    8.45361837953302    5.13662681587257
C         5.55729034387617    7.08589894721794    6.14701042743772
H         5.15898885883594    7.24746484092264    7.13496198794075
C         6.61950071710694    6.21396654752326    5.90662119336317
C         7.27837600246092    5.41149197822477    6.94435788864111
C         6.68361242045148    5.07963900100277    8.15992947023931
H         5.68405178003124    5.41010298235561    8.39874780454426
C         7.38782815945723    4.28462481232958    9.04914066594961
H         6.95723343902459    4.00016515220575    9.99590435636200
C         8.65065713986453    3.83645390550341    8.69984922272826
H         9.22234137766959    3.18716016221996    9.34738955489350
C         8.55875876846442    4.92049215722416    6.68940408059044
H         9.04699149261454    5.14751659458230    5.75236397197355
C         8.53456989399904    5.27662042611234    2.29817764112222
H         8.97946262721635    5.07576903060360    1.33157510280135
H         8.06650156688994    4.38640937803964    2.69462859522155
H         9.27500526629929    5.66403399085340    2.98389045298646
S        14.72906378124839    6.52381199288184    2.03865049669179
N        16.45060772311543    7.59304418983408    3.82691037125696
N        14.87540285219106    6.06838353386112    4.67008724614341
N        12.75912615369562    4.15426846628082    7.54089272150022
O        14.12728168823774    7.76866413741913    1.65780106123487
O        15.76107024698108    5.98086820196015    1.20250610891959
C        15.44081722923087    6.75794817657322    3.70732468255639
C        16.93750505492449    7.75928440849417    5.04616839584250
H        17.76213555968663    8.45366402322117    5.13649831895631
C        16.42364056260425    7.08585953285407    6.14695991383166
H        16.82198098894445    7.24745631021979    7.13489291891202
C        15.36145426931070    6.21387902440897    5.90663393725341
C        14.70260596669311    5.41144291358812    6.94441607891245
C        15.29738259464042    5.07960483421125    8.15998492395751
H        16.29694269260245    5.41007771121871    8.39879688588646
C        14.59316389194197    4.28461555183940    9.04921586825212
H        15.02376393684103    4.00018117657680    9.99598610982027
C        13.33032747490063    3.83644748796962    8.69994557816243
H        12.75865849107729    3.18715802777857    9.34750589480708
C        13.42220582874310    4.92047100724864    6.68950013249730
H        12.93396416506757    5.14749700481504    5.75246536761941
C        13.44714496666243    5.27538771854938    2.29807587607090
H        13.00202787953203    5.07473340168096    1.33153470228773
H        13.91616021993346    4.38534030841436    2.69377411956183
H        12.70664385672270    5.66170303477712    2.98433892653127

