55
CSD_code = GEFNEN | q = 0 | S = 0 | Stoichiometry = C20H28Cl2N4Pt | MND = 4
Pt        4.55243644512414   -0.01765727948810    0.00677759797587
C         3.57928028445692    1.95473885548626    1.87867870636702
H         3.80589149837597    2.60606379287805    1.04270956229115
N         3.85359407039302    0.65804060606536    1.71159493854277
Cl        6.43365828888915    1.29865005158460    0.24837360933629
C         3.08249687720238    0.27438974063465    3.93517063678230
H         2.90180636822321   -0.46426629002957    4.69719125567359
C         2.77081605252307    1.63378939429089    4.13471833739129
N         2.29675297922690    2.12048728446747    5.31521511589933
C         3.04996337259942    2.47031261295815    3.03547353073615
H         2.87377094380190    3.53178280300939    3.07786509083842
C         3.60529352533896   -0.15614769261420    2.73968628783118
H         3.81948363774563   -1.20695054087644    2.58417011668902
C         0.55308399056411    0.76363372296541    6.37336560905409
H         0.34187994086915    0.11290191133329    7.22277783778613
H         0.40662654088909    0.18933876078799    5.45622151435732
C        -0.38381195328186    1.97033214601593    6.38070966366686
H        -1.41754096779663    1.64469306159571    6.25499907944684
H        -0.30788703520962    2.48035588252041    7.34441522380991
C        -0.00101527632639    2.94069823235394    5.26493085807590
H        -0.17089214254874    2.47010414940829    4.29389282969704
H        -0.61364132119230    3.84148275188362    5.31930827056809
C         1.48049953420582    3.31601189740439    5.37850735392938
H         1.75281534476068    4.01717244627967    4.59348622094839
H         1.66671260025665    3.80075391512895    6.34260337224601
C         2.00247053523383    1.25144653069333    6.43595722982070
H         2.14688233795121    1.83966559061168    7.34892078902642
H         2.70549712719151    0.42077448592503    6.46802381577432
C         5.51251181250295   -1.98422111649027   -1.88693946368989
H         5.27783593935702   -2.64558318772611   -1.06133323893981
N         5.24974024051394   -0.68769070735451   -1.70135816640254
Cl        2.67138242539168   -1.33403930085918   -0.23059233225579
C         6.02843243159968   -0.27841247755028   -3.91787680498641
H         6.21726431385065    0.46969804743386   -4.66859388681652
C         6.32927676926279   -1.63726733398779   -4.13625210646692
N         6.80270841732292   -2.11028479556157   -5.32264070898300
C         6.03976817276757   -2.48739273054686   -3.05029789703027
H         6.20615463416142   -3.54967608642854   -3.10859476209573
C         5.50683214510837    0.13905411484040   -2.71740886706963
H         5.30194369790309    1.18942510056673   -2.54715891570553
C         8.55320500881589   -0.74511582743869   -6.35897154983059
H         8.76811396010890   -0.08313838162158   -7.19871341755005
H         8.70042506027969   -0.18448873300567   -5.43352167370041
C         9.48549562087133   -1.95516814662862   -6.38201688428170
H        10.52030949520799   -1.63532386980578   -6.25044201840580
H         9.40885892807649   -2.45133847167457   -7.35288161260700
C         9.09752601157404   -2.93946113686598   -5.28029581516853
H         9.26810733745403   -2.48299246302996   -4.30264480741402
H         9.70679787501119   -3.84174400364750   -5.34645961775068
C         7.61472447991915   -3.30781374327560   -5.40042257336730
H         7.33908917100566   -4.01768642745370   -4.62440313859498
H         7.42784639634445   -3.77961720479331   -6.37080260768498
C         7.10225756190247   -1.22688339822938   -6.43070759240941
H         6.95744713506923   -1.80195872718989   -7.35194929441380
H         6.40202135923251   -0.39347781493426   -6.45246470093814

