48
CSD_code = GELLUE | q = 1 | S = 0 | Stoichiometry = C16H23Br2N2P2PtS2(1+) | MND = 6
Pt       -2.79115094340739    0.45244615030150    2.71311151408345
Br       -1.00559753393714   -1.14268379917618    1.88272140565462
Br       -4.52659075020761   -1.33781731504397    3.05755290100177
S        -5.11027951903955    1.44733830331725    0.64080492043413
S        -4.53098428059499    2.06522539159043    3.36563574963480
P        -1.42273683011313    2.35251608782154    2.18722119760478
P        -1.98605651021279   -0.06737063042461    4.83015424034850
N        -3.70992308107133    0.70023628183636    0.76375838746754
N        -5.35276344878242    2.13257430231660    1.99883326240064
C        -2.12249496759953    3.12637912602038    0.70936414504412
C        -3.07405066634266    4.13830716463725    0.81499525545509
C        -3.64213318527875    4.67194243278565   -0.32839337082608
C        -3.27588031608152    4.19546935611410   -1.57720834692384
C        -2.33777556334142    3.18018070724985   -1.68501659517237
C        -1.76670419890720    2.63910146895908   -0.54805079421346
C         0.33083013447894    2.08478780257421    1.77342016841348
C        -1.37066066664428    3.68498424182645    3.43651809617464
C        -2.91221497655906    0.87900160260359    6.06148797410153
C        -4.23028524048169    0.51057974900762    6.32924663288759
C        -4.97241018637808    1.22297335652586    7.25219800109077
C        -4.41190529510360    2.31055854931118    7.90364890561415
C        -3.10519981735875    2.68417119718453    7.63296964875951
C        -2.35485244707284    1.97692696820822    6.71106807789785
C        -2.09161937723763   -1.81029973653748    5.32221718748176
C        -0.21682491837617    0.28596064162041    5.07383552863982
H        -3.49256019850571    0.09643549682609   -0.01997440074527
H        -3.37023272455211    4.51393874362212    1.78347785802055
H        -4.37236200129352    5.46155828232384   -0.24208257186363
H        -3.72131067766148    4.61460692273478   -2.46572397621374
H        -2.05161526441132    2.80777032200940   -2.65648963213901
H        -1.04730179334052    1.83805713198095   -0.63633890732598
H         0.89047205253112    1.80851301153052    2.66481513418032
H         0.73057641116053    3.01213162264898    1.36192610365391
H         0.43841965595723    1.28167004778779    1.04683490122848
H        -0.66531302951877    3.42405347336739    4.22260175178543
H        -2.35021385771717    3.84209102625932    3.88551836871662
H        -1.03578353436284    4.60226535124270    2.95217509081729
H        -4.67517828803340   -0.33046067344822    5.81751573879379
H        -5.98924446277256    0.92988333712651    7.46154693265959
H        -4.99289831794324    2.86734180397647    8.62205912098677
H        -2.66716865870561    3.52859857252524    8.14268990652867
H        -1.33482643491964    2.27105024841133    6.51522692497417
H        -1.60571936502041   -2.43475474490135    4.57117582710247
H        -3.12440974729069   -2.13233865411825    5.43566323042022
H        -1.57085084486279   -1.91115466996386    6.27569891888366
H         0.03454828108756    1.31273378287538    4.82125428187928
H         0.36065336565770   -0.39267040598978    4.44543469447723
H         0.02428402016567    0.09889057054190    6.12060061013818

