70
CSD_code = GERREB | q = 0 | S = 0 | Stoichiometry = C29H31I2N2O4PPd | MND = 4
I        -2.52363361934736    1.08386514759490    4.74367610386480
I        -2.53093358841743    4.64137284363729    6.24258065966239
Pd       -0.79580644705586    2.78642210595430    5.67594962802461
P         0.83303728845554    1.30779201055445    5.19627858855445
O         3.55146291508350    7.43302833841523    6.82546902984451
O         3.38831873082169    6.55061047146887    4.76904932664587
O         2.47897038041230    4.93513368046275   10.05037358662266
O         4.13967680623043    5.39709868911803    8.60435532047887
N         1.23215354161111    4.95228629324191    5.67198931312012
N         1.03972294369041    4.02720250335251    7.61961661110303
C         0.55029634139244    4.02943238227214    6.37017255251576
C         0.87995542393980    5.32906310919119    4.32603354695384
C         2.19014688660238    5.52265884143889    6.47684828078981
C         3.10996261879775    6.60414766229659    6.07393549123915
C         4.26696520098804    7.56406039443565    4.26814158337927
C         4.32421563775307    7.44266240507721    2.75777333646114
C         0.48921863671633    3.23521586487514    8.69033493210923
C         2.07089161428011    4.92554008814458    7.71110825423705
C         2.89229358830233    5.09250597761555    8.92913625300402
C         5.03928835799619    5.73733827103301    9.66557547149955
C         6.01623381917698    6.77253639028014    9.13967340451511
C         2.46642768404034    1.69135361950814    5.91621649156417
C         3.27144660417552    2.64727325286888    5.29962874961093
C         4.43261256429145    3.08171834307992    5.90894023049930
C         4.80161587993015    2.57118677364562    7.14317967252778
C         4.01146928134886    1.61475573212816    7.75878100630406
C         2.84726279086108    1.17711171875203    7.15184006999125
C         0.49865631037632   -0.36766368705843    5.80237415775651
C        -0.21879340111234   -0.42917154540741    6.99691433356595
C        -0.52441846644539   -1.65064761042915    7.56160777290150
C        -0.12583440010927   -2.81736064428115    6.92678603041204
C         0.56641139920773   -2.75843001296714    5.72937053810498
C         0.88348543779371   -1.53611720934001    5.16103404996471
C         1.19739397782633    1.26313958899778    3.42300529149669
C         2.30134043128821    0.58308101890569    2.91339698766812
C         2.54536838307558    0.59852046824775    1.55304239024463
C         1.70590263802135    1.30021279745145    0.70077597793152
C         0.62725041137360    2.00559984213160    1.20820706077921
C         0.37484396096304    1.99137060145707    2.56793810051242
H         1.67615847689051    5.07334334485845    3.62588749495106
H        -0.04332486291268    4.79341047492083    4.05102727082050
H         0.68939115152452    6.40146620888310    4.27407287349251
H         3.88801003275891    8.54302948377756    4.57988525837742
H         5.25516982053624    7.42338826043698    4.71957592886717
H         3.33739316983293    7.59328459455109    2.32829559521665
H         4.99989960816669    8.19379298346142    2.36026085679141
H         4.68314143824446    6.45749732096592    2.47141932979368
H        -0.47854269843814    2.82567640475056    8.35354509060302
H         1.16733892807006    2.42193849646193    8.95770637678339
H         0.32937014630063    3.86204529701704    9.56705547005519
H         4.45691672805827    6.12469170166461   10.50745023559867
H         5.55232726846044    4.82360921228283    9.98633453719286
H         6.64903465069797    7.12506998498001    9.94854592241671
H         6.63914676478326    6.34278121844758    8.35975611594925
H         5.46362018615431    7.60849749038804    8.71926481895801
H         2.98567418049276    3.04113911504820    4.33204550862169
H         5.04900143267878    3.82365644713646    5.42328133491995
H         5.70607868055588    2.91603425491651    7.62019340346716
H         4.30047398680784    1.20801344424020    8.71696580756018
H         2.23430499266623    0.42465898926230    7.63158352828162
H        -0.57319522516631    0.49652492323648    7.45781627575428
H        -1.08708471292773   -1.69625224487532    8.48189108395685
H        -0.37391581609218   -3.77504467142435    7.35872809378794
H         0.85391298389190   -3.66958912996091    5.22610276950744
H         1.40084549872671   -1.49672969516690    4.21390097039220
H         2.97251001517552    0.06292157737374    3.58424857183202
H         3.39532860115704    0.06358335969186    1.15518205889051
H         1.90014020155501    1.30309860656062   -0.36129740004106
H        -0.01832201696311    2.56301485238018    0.54643479590053
H        -0.47798217580770    2.54454117553842    2.97072983502521

