55
CSD_code = GOBDIM | q = 0 | S = 0 | Stoichiometry = C22H25Cl2N3OPdS | MND = 4
Pd        5.83283428561296    7.50921121306312   20.85601692582967
Cl        7.23404469736508    5.70412249521781   20.65866976502438
Cl        4.50804820381726    9.41330100249798   20.94244295909135
C         4.49374498034000    6.58592069183863   19.79605629845826
C         2.54154760432729    5.62452173898188   19.33810124060829
H         1.52448793063982    5.33203320796290   19.49802852601312
C         3.37082374778501    5.40201111823566   18.29157921273083
H         3.20027974363786    4.89488257835581   17.36525191018048
C         5.74632360484640    5.90701184824400   17.79640445438054
C         6.24649833528243    4.64195616250027   17.47525087873887
C         7.38658193069868    4.55965446788957   16.69196429487182
H         7.78198487020825    3.58449132483551   16.44720684346233
C         8.04243130912963    5.69322637054616   16.23586520104976
C         7.53647649464535    6.93429447451427   16.58698616740809
H         8.04577754645057    7.82754377424553   16.25513268916801
C         9.29131466472094    5.57587444938383   15.41796616675162
H         9.26589427233807    4.68476479450080   14.79508872085336
H        10.15540919447791    5.50042141919859   16.07825664839687
H         9.42574586944341    6.44915932792970   14.78439805476057
C         6.39673465284180    7.06737721362060   17.36813501856681
C         5.92294413523478    8.44038639918067   17.73897444614169
H         6.37444987921389    8.73811162550662   18.70440215364890
H         4.83846695307723    8.49090929846174   17.83914880440487
H         6.24037812904946    9.16398072942786   16.99142415098980
C         5.60894119568798    3.38109695713766   17.97830484458408
H         5.16401461259361    3.52929146027145   18.95861486175811
H         6.36131433863636    2.60070424533929   18.05759155534053
H         4.83544014237567    3.03229938551498   17.29318137522115
C         2.79079525478804    6.79985881366310   21.52977227002051
H         1.85730354962578    6.31483151028330   21.81016548542608
H         2.69909133122873    7.89040159149236   21.56467653579691
C         3.74374154418013    4.61765697935611   22.69493061397354
C         4.51714540183637    3.83454048915390   21.85621697018064
H         5.36088711007914    4.27006796425734   21.33750568671195
C         4.21556031582416    2.49104611870625   21.72315690537982
H         4.81414802586688    1.86941566385853   21.07306866528609
C         3.15828196988663    1.92263163493602   22.42831182033465
C         2.41089769089269    2.72487795628618   23.28296213772608
H         1.59757076680334    2.29297972666530   23.84825352291123
C         2.70169517079124    4.07048247701717   23.41890788834256
H         2.14224266771673    4.70583484121202   24.08936853534841
C         2.85089875083055    0.46489754526460   22.27045164419412
H         2.61109173602657    0.23803469209277   21.23223637475843
H         2.01030238365224    0.17206932177980   22.89407343329699
H         3.71634900327787   -0.13482734225816   22.54854944933392
C         7.39902512775270    9.08317711223179   22.93629228762437
C         7.82391168666774    9.87814133892924   24.04463889778658
H         7.12466261520968   10.70349595540884   24.17984570477816
H         8.82253262819002   10.27238794524844   23.85707030502999
H         7.83663164137244    9.26503559149658   24.94558134137001
N         3.24903351258693    6.35522854428666   20.25642856359157
N         4.56978169114613    5.99617201710449   18.59140281166742
N         7.08113250686315    8.45017009893531   22.03351581618676
O         3.48990841057042    6.82707701098885   24.08167686835965
S         4.09444418182700    6.39145462751276   22.82479529595145

