24
CSD_code = GOCQUL | q = 0 | S = 0 | Stoichiometry = C9H10Cl2N2Zn | MND = 4
Zn        6.15326390807044    1.79979354897000    1.27248506511178
Cl        6.11617012282659   -0.30756000277381    1.88009884226041
Cl        5.36367479747596    3.65918257075015    2.14844256070112
N         8.14292521906220    2.28832889893373    0.59914084923546
N         5.83182616970820    2.04042184635389   -0.83096139972554
C         6.93471621451960    2.49662385346597   -1.43271767413563
C         4.71013066566052    1.93535451178755   -1.51971304992279
H         3.85255624196166    1.56105666179284   -0.97809258400907
C         4.62045451199884    2.27993724121755   -2.86121019071080
H         3.68425894627977    2.17892718811835   -3.38581377627523
C         5.75517199882247    2.75471101827970   -3.50095753266100
H         5.72481944362565    3.03502214801886   -4.54295362879922
C         6.93057400197185    2.86412680657523   -2.77871608158911
H         7.83495816607315    3.23054812930453   -3.23920834625613
C         8.14289569347942    2.59680067755296   -0.63394381661800
H         9.04395957692915    2.94842138941569   -1.14217919909087
C         9.28546822203572    2.36989606410622    1.38219785683091
H        10.18367538989660    2.72530559232980    0.87732315967203
C         9.44511374562324    1.33403468621723    2.47800180718009
H         8.67478562724458    0.58082115118945    2.54666537279202
H        10.44676419105121    0.97410035402259    2.65643411773005
C         9.09980127479955    2.72735683915583    2.84293442597234
H         8.08992050322883    2.93874706903377    3.16262868943044
H         9.85261536765514    3.36374175618133    3.28231453287626

