42
CSD_code = GOPDIB | q = 0 | S = 0 | Stoichiometry = C21H14FI2N3Zn | MND = 5
Zn       13.08422286928035    2.47768804481454    6.76855069232062
I        11.50449061494932    3.20834484840622    8.60903337456898
I        15.60844147704750    2.46720221398363    6.42942033055538
F        12.22512055357977   -1.83888115083734   -2.65722194836282
N        12.83801618506386    0.26482689000976    7.13223269034949
N        12.38698459091190    1.62016037591353    4.92612025104412
N        12.62233442851036    4.19223937320631    5.37876591249628
C        12.96284700684578   -0.32844802889978    8.30485737606107
H        13.21762187725925    0.31097263013170    9.13923401678600
C        12.77755164955784   -1.69111980455724    8.47906219037079
H        12.89233582446080   -2.13585459981729    9.45389642037772
C        12.43349800896677   -2.45208296070820    7.37407477422382
H        12.26650554623857   -3.51476149783260    7.46561275883242
C        12.30245704570599   -1.83037186420883    6.14375537051892
H        12.01772468077346   -2.40226927198149    5.27560739195528
C        12.52356689635486   -0.45809018052056    6.05660928828713
C        12.42500222560184    0.29730391056502    4.79807144456550
C        12.40227425438049   -0.30887325512917    3.54678808573703
H        12.44380457864376   -1.38082821404187    3.44955102191441
C        12.33241538829248    0.48583598047686    2.40510381685476
C        12.28777435540442    1.86826377399608    2.56917872096068
H        12.27429861944064    2.50763433450959    1.70229576560653
C        12.32106939401942    2.40296871423596    3.85298217141265
C        12.31781187717340    3.84880339723381    4.12639030750538
C        12.01513059874179    4.80987249090766    3.16494974851482
H        11.74653985531685    4.52529332153517    2.16065570926635
C        12.04845035915774    6.14748994966943    3.52176874312966
H        11.81770780331231    6.90963646481824    2.79271770526987
C        12.37809837805505    6.48890132996256    4.82295970267649
H        12.41662105209358    7.51751995688864    5.14195699439228
C        12.65281223426578    5.46732986169354    5.71874609902385
H        12.90326179930800    5.68109753156765    6.74910757076242
C        12.31168521908869   -0.12059094829080    1.06783016737206
C        11.46217493686437    0.37699318420834    0.08136581389673
H        10.80485380265747    1.20371662269514    0.30535649654405
C        11.42466466361412   -0.19986375806381   -1.17313104680262
H        10.76425854674135    0.16867872625238   -1.94179619452494
C        12.25595966372635   -1.27439336847221   -1.43755706245409
C        13.11682867969136   -1.78418327092977   -0.48116582421179
H        13.75610785118633   -2.61781119068688   -0.72407973182167
C        13.13566364716844   -1.20551957854163    0.77277103546796
H        13.81731096054781   -1.58033098416264    1.52107184855611

