67
CSD_code = GOSGIG | q = 0 | S = 0 | Stoichiometry = C29H30BrCuN6 | MND = 3
C        11.22940884755063    0.69885381631670    6.29356869381289
H        12.07929093334586    0.65604298692826    6.97219017706808
H        10.83780388870271   -0.30401776103145    6.13610911973376
H        10.44537038450443    1.30381252637158    6.74982897012675
C        11.66266191001323    1.29033881437733    5.00241678141999
C        11.04078803496885    1.22909199727004    3.74987342702783
H        10.11497660826237    0.74669609487543    3.51273620498544
C        11.86433002883052    1.91888880027061    2.88398632275966
C        11.68100060720174    2.20631899510493    1.43911746436406
H        11.72120811566199    3.27853026503776    1.24940277416451
H        10.71085269873282    1.83370228118775    1.12225112322915
H        12.44729717819955    1.71824824303111    0.83815128925520
C        14.13482956729813    2.99147873955591    3.16218840130955
H        14.04843778061880    3.13291830958348    2.08053195289198
H        14.24468829008629    3.97180914310791    3.64033074112944
C        15.20855241109629    0.81630786401131    3.23555292107349
C        14.81307745551280    0.32907599967171    2.01015225973273
H        14.59888652099897    1.01265554827643    1.20341573272171
C        14.71272817578146   -1.04746628907793    1.79485735516103
H        14.40765941935711   -1.40568798425303    0.82227481175534
C        14.99452856769727   -1.93199218922310    2.79888212388732
H        14.90534380846180   -2.99606545275974    2.63754757558262
C        15.39517316221560   -1.47194972088982    4.06942950956671
C        15.51446193080371   -0.07818072553697    4.28918618970601
C        15.88930047624048    0.40782146627054    5.57434129920396
C        16.10125784684791   -0.49662601452857    6.59496312378289
H        16.36280225625663   -0.16941758340589    7.58756363649647
C        15.98509979322998   -1.87198704564277    6.36655817661117
H        16.17077778772220   -2.54829587961815    7.18885317036063
C        15.65305372895069   -2.35929192468742    5.13458497740262
H        15.57287803729800   -3.42198244692105    4.96172054296839
C        16.18896872242220    2.57711477979005    4.53792326870031
H        15.97921912578586    3.62304347292154    4.79057570655027
C        16.58461981830220    2.31732058863303    6.94010263128863
H        16.70812354312780    3.39925903072414    6.79530189379808
H        17.57200835593783    1.87647028458747    7.14570244179833
C        17.58926689454348    1.72290980594496    9.76882453864303
H        18.07024194716877    0.89471204773651    9.24655602491689
H        17.65097115080870    1.53775586613062   10.83752754667957
H        18.13954378288436    2.63564201658560    9.54083037317806
C        16.16381716477645    1.85626097619086    9.37557952289689
C        15.02050265023551    1.79408139462300   10.14440701423989
H        14.96072751284595    1.61889730198465   11.19870393931645
C        13.95229219592697    2.02067958349749    9.26597954782557
C        12.49950382160556    2.07772788556580    9.57109215276343
H        11.97904366548056    2.62211886244892    8.78627874543164
H        12.33746410901644    2.57915435566421   10.52264977038032
H        12.08027974767684    1.07322946581847    9.63894625998076
C        17.60636215364410    2.50885157826897    3.98844287420887
C        18.02044465296845    3.54391716859940    3.15642856245682
H        17.34542306283707    4.36352173007421    2.95849611203370
C        19.28091033194956    3.53087869167346    2.59037900852980
H        19.58944307452618    4.34138620628567    1.94698377308683
C        20.14752059914854    2.48204463716585    2.85138550711778
H        21.13352395680142    2.46940162647523    2.41125459606051
C        19.74375368075878    1.45104689527960    3.68006942449784
H        20.41279461395858    0.62896712438741    3.88875857739065
C        18.47926559910210    1.46197826072552    4.24568450551141
H        18.18364195777715    0.64206635096503    4.88343054166113
N        12.78937898366145    1.98376045212935    4.89862677202437
N        12.90982776107616    2.36531603205180    3.61644487892455
N        15.28808921977145    2.18957196205445    3.47920231861899
N        15.98789416291984    1.78260080828611    5.74551519001640
N        15.75864742475229    2.09554542508139    8.10621035523850
N        14.42590447387293    2.19851366373879    8.03999422921383
Cu       13.65380693354581    2.95153982765104    6.38997040801088
Br       14.19164689592660    5.17438296658473    6.03107413772052

