62
CSD_code = GUTHUZ | q = 1 | S = 0 | Stoichiometry = C27H29ClN3RuS(1+) | MND = 9
Ru        6.03818978953464    1.67962307165248    3.60343457335470
Cl        7.97073776088212    2.12532144111699    4.84113499723258
S         6.92542481775854   -0.48532916808882    3.26454983912411
N         7.33306794121346    2.14377335516442    2.11600072941479
N         8.33004534403922    1.23053678162378    1.87072320379043
H         9.18599008461313    1.58649213866745    1.44444643994638
N         9.29315245874537   -0.86132499029784    2.15879242761447
H        10.08552453927388   -0.56382588133293    1.60831024082845
C         3.72677465966626   -0.01981155305331    1.19438173908046
H         4.81553202430003   -0.06869780957088    1.26197218708489
H         3.45119256647368    0.86936480406822    0.63337134277957
H         3.37466629308416   -0.89126907037327    0.64972643142895
C         1.59733549677530    0.20842620682619    2.52943948983954
H         1.16604184352037    0.21172333257400    3.52767893801830
H         1.14131207173410   -0.59719350720331    1.96096436092279
H         1.35559703911713    1.15147424421566    2.04506222357003
C         3.11336242557366    0.00152668536163    2.59615055574110
H         3.31145684146298   -0.96552425651548    3.07109042661896
C         3.74223838721478    1.08007366204743    3.44403270218037
C         3.75346082785808    2.42206237152200    3.03726677449813
H         3.29756290589088    2.70223532409152    2.09657722121023
C         4.22593570419931    3.44600315975664    3.89126012635751
H         4.10814668336042    4.47909408432306    3.59051945658170
C         4.76170538632952    3.15186762626514    5.14779186473891
C         4.82777158056817    1.78215634493031    5.53361194929079
H         5.18965067196989    1.53277801818366    6.52660660607690
C         4.29499669816459    0.77581432129612    4.71763120051421
H         4.24225446686741   -0.24405139569671    5.08972981304748
C         5.21935868101301    4.22070596674394    6.08507429054228
H         4.62587353559927    4.19296074093073    6.99883075362710
H         5.13280658689050    5.20562575372936    5.63300672199842
H         6.26066749388677    4.05583310427525    6.36317887517478
C         6.48076956553622    4.36801414082301    1.79854298256291
C         5.35748555225868    4.32233223061706    0.95288557803733
C         5.13864692055301    3.27452760418881    0.02122121341798
H         5.85596231252959    2.46843665869033   -0.04104964551744
C         4.04307620196608    3.27444409263128   -0.78938109483170
H         3.89272906836720    2.47400454401860   -1.49845111209668
C         3.09766322074238    4.31893424338774   -0.72229252980775
H         2.23800172847483    4.29502698151745   -1.37386694520696
C         3.27891093839914    5.34957044647687    0.14816232712248
H         2.56853973664215    6.16099780469900    0.19950068085747
C         4.40981284956610    5.39333472350722    1.00413859237605
C         4.61603461272271    6.45322273052294    1.88436122904267
H         3.89848129882788    7.26087458872757    1.91166394930457
C         5.72225346862515    6.49920848862091    2.72912271882166
C         5.92181909380107    7.56418864727313    3.64517262501523
H         5.19493109306433    8.36251383633387    3.66778929427962
C         6.99936239789763    7.57576132829409    4.47737498926410
H         7.14462509259579    8.38806919136786    5.17265226555646
C         7.93702909215618    6.52230030383449    4.44340130774806
H         8.77906712656436    6.54561289460816    5.11780865562486
C         7.78418994906241    5.48297952996358    3.57587264531961
H         8.49081662933147    4.66625258296455    3.57205315579650
C         6.67995415669274    5.43792475961347    2.68740304302144
C         7.51558419692231    3.33679391529620    1.68177081458509
H         8.45707850344626    3.61019328188498    1.20171065469498
C         8.29139634607799   -0.02084438096835    2.38933163874202
C         9.30314793584283   -2.20937113997337    2.67742498894916
H        10.31549178054558   -2.60018714018778    2.64007916452381
H         8.64342328551568   -2.85401635148629    2.09349648198006
H         8.95198223769017   -2.20464544448475    3.70995182858527

