49
CSD_code = HARLIV | q = 0 | S = 0 | Stoichiometry = C12H30Cl3N3W | MND = 6
W        -1.07817190876966    3.59188019104940    3.93732290646643
Cl       -2.23713765397936    5.01755438932675    5.43687293880393
Cl       -2.04577242153703    4.81560266240380    2.16989142455246
Cl       -3.10664033557470    2.41872864314900    3.88265662731704
N         0.33953619335843    4.92091938974288    4.03356584826528
N        -0.47521089041830    2.33833145416366    5.31408260223435
N        -0.17512520939362    2.54534718782538    2.57481327415103
C         1.58568482403292    4.70328438367878    4.75466115061325
C         1.38382740222946    4.94167007831384    6.25781951732326
C         0.16273421935006    6.34273669214271    3.74270436504928
C         0.73167171864603    6.74559491480463    2.37808396935896
C         0.58293468781107    1.33504692794882    5.18544835592913
C         1.56647924216201    1.25116745236084    6.36067501765846
C        -1.26441977717108    2.10347250364183    6.52990962609898
C        -1.95791801018042    0.73575043321323    6.57298807441883
C        -0.70035479969070    1.24444133634547    2.16343973961808
C        -1.68497974344628    1.36602254043686    0.99355126736267
C         0.69811493979805    3.13261172477435    1.56405443080460
C         1.86415460328912    2.25192265552475    1.09946622810210
H         2.36982479663976    5.37755490208180    4.38190474160216
H         1.91677542581538    3.67159492897942    4.58337902539748
H         2.27542279806819    4.66493702089576    6.81545421669927
H         1.16814192454814    5.98902958053315    6.45468534903642
H         0.53235266432548    4.35120342094785    6.60013854242020
H         0.65091793122308    6.94235728145521    4.52197366389721
H        -0.90673359375720    6.58856689206395    3.76217301643252
H         0.63137645488640    7.81968946516254    2.24662686757445
H         1.78615638087108    6.48431260494185    2.30467628316931
H         0.18002949870237    6.24685637014012    1.58493729409235
H         1.14898163744267    1.57226406990299    4.27627036602539
H         0.13155368984517    0.34115781147918    5.04793403150362
H         2.39958683529452    0.61210552992365    6.07843340268086
H         1.95250605760831    2.23440730699052    6.61202433109539
H         1.09928014998716    0.82219832190423    7.24253346782638
H        -2.03986944623688    2.87550543573360    6.59116837140794
H        -0.62311086892463    2.20859418696293    7.41683149431696
H        -1.25123907146802   -0.07623383288032    6.72592217837710
H        -2.50538900784985    0.56969045423238    5.64768794654865
H        -2.66760810879137    0.72830939573621    7.39574645506359
H        -1.22600481939579    0.80939318288905    3.02204418730120
H         0.11619370180216    0.56382061611065    1.88867417117937
H        -2.22326308578905    0.43067217695200    0.86829493537399
H        -2.40562318102464    2.15643548099282    1.20511567842625
H        -1.17071434663540    1.59814514331630    0.06440534255937
H         1.11292299105759    4.04767067077524    2.00149756900333
H         0.09294963566159    3.42347791849262    0.69002624205604
H         2.55497857885459    2.85821420707825    0.51967001042832
H         2.39800265143196    1.84548656297584    1.95638676478026
H         1.53029464529053    1.43199733238538    0.46977668959673

