36
CSD_code = HARSIC | q = -1 | S = 0 | Stoichiometry = C17H4Br2F10NPtS(1-) | MND = 6
Pt        5.97830985921700    6.41696552550964    4.11301202311783
Br        4.78527373759142    5.56940512730827    6.16806539661769
Br        4.70479170923391    8.55845952975704    4.45191413267885
S         6.50409793530303    7.01562533615768    1.75039727471197
F         9.08420324156437    5.68791339059354    3.40910807017514
F        10.31991420104474    3.38416066337556    2.88315572507154
F         8.92217568553110    1.02971220366164    2.82997914140148
F         6.22462589920001    1.06775329932809    3.30896667218941
F         4.97626200263293    3.36176855382522    3.84903586836242
F         7.72441943609895    9.06021415306553    3.92522404065918
F         9.75654568990587   10.02009333526283    5.37317748972795
F        10.81680597540788    8.54919098216562    7.42212007345674
F         9.80978149853759    6.05495202968224    7.93794178705137
F         7.78940183665931    5.08025415528537    6.48322774582361
N         4.43289228561080    5.92533202813337    2.79794937769488
C         4.89886198109065    6.40220085442092    1.63108432470070
C         4.10859514570758    6.39649390441596    0.47920616285703
C         2.82653116664338    5.90284048448576    0.57192495819456
C         2.35426481215330    5.43241024869778    1.79639926880283
C         3.19361397318311    5.46626070498096    2.89172868234416
C         6.97553905734809    4.63093152170091    3.70599315626975
C         8.33816481508155    4.56644273155831    3.42778553224811
C         9.00239136964058    3.37918903553750    3.14164172111450
C         8.29790640284366    2.18408378439232    3.11225828865270
C         6.93420286790109    2.20700772101052    3.36158856755439
C         6.30417475089247    3.41352548292327    3.65011345868978
C         7.58643599510538    7.07155927481063    5.20660942664797
C         8.16897935844609    8.31112100557325    4.94227089086537
C         9.23961097288632    8.81717347927081    5.67188082605904
C         9.78569474689150    8.07156890893268    6.70593006314068
C         9.26669629587714    6.81294970361244    6.97086423426188
C         8.19687269408994    6.33699571931102    6.22200070295650
H         4.51318678465586    6.78781505877405   -0.44026706114864
H         2.18676650358960    5.88906065837639   -0.29870617898435
H         1.35153380244846    5.05134262991795    1.89752637806288
H         2.88177550998545    5.11912677418396    3.86809177796993

