67
CSD_code = HEBLUW | q = 0 | S = 0 | Stoichiometry = C27H36AgClN2 | MND = 2
Ag       -0.22593886102193   15.74025906048863    0.48801746873187
N        -3.08791838736665   16.84036520143229    1.05844058962588
Cl        1.97269580298460   15.71684366779906    0.04699415260906
C        -2.62809214457556   18.18386315268431    0.98802625963805
C        -2.18611169620611   18.80907914561706    2.15659364692256
N        -3.11462145924693   14.70480822894871    1.04755300209349
C        -1.74515315956415   20.12230928515540    2.06698323308512
H        -1.38705541459837   20.62758851811443    2.94985273090343
C        -1.74651868076021   20.78815804850823    0.85661773570157
H        -1.39659999176955   21.80821518213514    0.80429389968663
C        -2.17783854218453   20.14969480091140   -0.28987662084933
H        -2.15432918222210   20.67614830807033   -1.23079919378189
C        -2.62800068002035   18.83708810141049   -0.24667277158803
C        -2.12631533434089   18.06546150236695    3.46977827762271
H        -2.67811706408044   17.12477786960278    3.37463929026773
C        -2.76243241730441   18.85915797873380    4.61223561913238
H        -2.80113883719312   18.24611443963574    5.50995082180593
H        -3.77665612957904   19.15706063812183    4.35386507966769
H        -2.18847803400906   19.75285153213702    4.84017007060308
C        -0.66658170937663   17.72724640117063    3.78370726717321
H        -0.08065334276309   18.63475788651670    3.90333007031420
H        -0.22850241582850   17.14380550817090    2.96660471830048
H        -0.60109482614011   17.14652045885244    4.70063557367237
C        -3.04699908046922   18.12608698418332   -1.51146483629826
H        -3.52429757680506   17.17684446532798   -1.24764635984031
C        -1.80163201385074   17.81256739144931   -2.34473993729892
H        -1.30196397237881   18.72914441031617   -2.64714353442375
H        -2.07369972137346   17.25314470055099   -3.23658603801860
H        -1.09375287236632   17.21571387809741   -1.75874031960705
C        -4.05648229417113   18.94156240440883   -2.32146971236655
H        -4.90814061957202   19.21975238429940   -1.70386383103859
H        -4.41734924351629   18.35244535053565   -3.16160654084966
H        -3.60631076423938   19.84831497474727   -2.71544155316093
C        -2.29428243545023   15.76326640161865    0.89725401436014
C        -4.38203679299582   16.46434906567148    1.30549239042896
H        -5.16421057546129   17.17821393053752    1.46225687381482
C        -4.39896730317112   15.11055280461100    1.29852363803250
H        -5.19890663780628   14.41494748940652    1.44755304525319
C        -2.69012879859909   13.35076738906697    0.95964568597448
C        -2.23821654084132   12.70665928193952    2.11384203913036
C        -1.83445614609844   11.38272922713764    2.00608653799515
H        -1.47057767087778   10.86204908648127    2.87762892685150
C        -1.88028352678783   10.72544336695411    0.79203515236945
H        -1.55880790574440    9.69688839643523    0.72542336110658
C        -2.31981522615449   11.38284357226321   -0.34072268404185
H        -2.33051362901703   10.86229629471398   -1.28509499218498
C        -2.73468703378551   12.70611398290294   -0.27891345899255
C        -2.13173652202472   13.43703450339556    3.43139271619741
H        -2.64123200800149   14.40236882368676    3.34879665151311
C        -2.79292819938511   12.66220303716379    4.57266015172022
H        -3.82412313659730   12.41935674912214    4.32383717951560
H        -2.78943946877878   13.26476609126627    5.47823519071237
H        -2.26251643002177   11.73750553406736    4.78162306596507
C        -0.65582122523022   13.70760507665709    3.73451474459037
H        -0.10931530380289   12.77461355975766    3.84461625457228
H        -0.55670051040055   14.28013697643940    4.65356920257952
H        -0.19943405312773   14.27584143479661    2.91643573717771
C        -3.15970119017727   13.43938503609057   -1.52895361701211
H        -3.62485662952503   14.38929349928585   -1.24639614285132
C        -4.18526562575302   12.64765888253997   -2.34214017318148
H        -3.74680660663937   11.74645975830340   -2.76120580649681
H        -4.55298242921056   13.25659153507102   -3.16502462662902
H        -5.03068774573941   12.36256982852606   -1.71916455576444
C        -1.91835752380967   13.75220000759666   -2.36866200444251
H        -1.43144290570136   12.83451550820899   -2.68823686865256
H        -1.19890988511988   14.33276021620526   -1.78065413817410
H        -2.19227171225195   14.32706179158064   -3.25009174987096

