57
CSD_code = HEYZUI | q = 0 | S = 0 | Stoichiometry = C20H29ClN4PtSi2 | MND = 4
C         1.66757109314016    4.93412664309041    4.02639133648417
C         3.55075900909076    4.63231351110870    2.88993523324102
H         4.43000971079182    4.92086963329777    2.35105157370703
C         3.08617180825875    3.39849751631603    3.21680409230613
H         3.48894567525587    2.42857571915944    3.00930804867593
C         0.94833616578235    2.69751466096418    4.37137061741572
C        -0.15803990304184    3.38053690086724    4.85538035670097
C        -0.15814745852536    0.64260105066528    4.85515679631839
H        -0.15821391332960   -0.43718996144629    4.85501184241965
C         0.96037793983057    1.31118653580174    4.36963251222393
H         1.80761361681340    0.75039086625387    4.00354800252187
C         2.70686730715283    6.95983895687204    3.13254058896574
H         3.74288206694116    7.26968065153144    2.99648878237039
H         2.30282240725729    7.47736009571509    4.00194396493603
C         0.12954105260890    6.18114317015003    1.51500056766627
H        -0.64065635424779    6.54130332590659    0.83967086640084
H        -0.33457519834722    6.06917726694740    2.50375125757696
H         0.42823236854714    5.19177401320837    1.17589943471514
C         1.06674962709044    9.20065139508158    1.74767363535924
H         0.46921866188585    9.51213292897409    0.89674972210669
H         1.92052559215625    9.86852977238278    1.81492233092556
H         0.46926132648706    9.33199999897509    2.64460861387314
C         2.70643886704191    7.09952799311201    0.05461258105048
H         3.06073882624594    6.07452128985213   -0.00714546719017
H         3.57562294680479    7.74979908007785    0.06371479089808
H         2.15632367780062    7.30724962780811   -0.85692368576137
N         2.67166228017681    5.55030019234108    3.39294117817424
N         1.92582581035518    3.59327496051275    3.90562705984132
Pt       -0.15752466663080    5.33297989025996    4.85651976195424
Cl       -0.15817146557676    7.70680420991192    4.85526069608327
Si        1.60235148581512    7.38598274678863    1.58943527228107
C        -1.98377557587309    4.93412524167231    5.68407941965126
C        -3.86702044770792    4.63231857098954    6.82046535105096
H        -4.74631471100322    4.92088245600232    7.35927485162036
C        -3.40230354418727    3.39849380259133    6.49382145376694
H        -3.80494520945359    2.42857224319534    6.70157849947538
C        -1.26444656593694    2.69751417718772    5.33932427934910
C        -1.27661153750817    1.31118914340741    5.34082102341802
H        -2.12392113129768    0.75040677698255    5.70675552935485
C        -3.02314646616748    6.95982816447581    6.57779138090861
H        -4.05915397523203    7.26961484565721    6.71405616323939
H        -2.61930101026368    7.47739648350649    5.70831992495391
C        -0.44551607244078    6.18139420448442    8.19555109620099
H         0.32466706983758    6.54230938197515    8.87052707469510
H         0.01845899309856    6.06901963014642    7.20679369267578
H        -0.74382453069767    5.19214707490018    8.53536532445526
C        -1.38273652688405    9.20051463004343    7.96270731030840
H        -0.78526181965210    9.51185462299802    8.81372077471314
H        -2.23637058078521    9.86855479917525    7.89534914363842
H        -0.78508642318468    9.33177398633500    7.06586498507939
C        -3.02305945851223    7.09938036759335    9.65539200947943
H        -3.37770397319394    6.07446760996269    9.71675955651109
H        -3.89204192100913    7.74993097698583    9.64621681561665
H        -2.47311756858064    7.30667147524246   10.56712739624649
N        -2.98797484829758    5.55030057856384    6.31734882967317
N        -2.24194154063570    3.59327070003693    5.80502902872657
Si       -1.91857098807363    7.38591341339121    8.12087672095514

