25
CSD_code = HIJTOJ | q = 0 | S = 0 | Stoichiometry = C9H11I2NOZn | MND = 4
Zn       -0.42906094190274    2.35363830610713    6.67293150545325
I        -0.83607901935035    4.75226831030164    7.28333274616291
I         0.52988548381702    0.80201176823589    4.98184945080957
N        -2.76603177586273    1.51458372938110    6.81907646268083
O        -0.52223845590955    1.36954832087400    8.52829135449662
C        -2.69635455779275    2.07764743339157    9.20585634497598
C        -3.32854014641729    2.16799398289994    7.93700399828721
C        -4.49410063744154    2.92826693334876    7.84621788453938
H        -4.98534560570185    3.06257318357996    6.89747454289585
C        -5.05643055678642    3.51987742753713    8.96106278511181
H        -5.96185663713786    4.09640302472032    8.84952670100947
C        -4.48306356390271    3.36446597378317   10.21583919421659
H        -4.93756767676740    3.81302556052935   11.08431283980896
C        -3.31254413185968    2.65319592601402   10.32856131000489
H        -2.82459677392991    2.55874028067952   11.28732382967969
C        -1.34637223893201    1.61437943886357    9.39922225512548
H        -1.02338897452817    1.56506572642234   10.45275849808331
C        -3.35537771076265    1.85186941109886    5.52488380584745
H        -2.75901080175270    1.38359062751807    4.74155978537242
H        -3.34196202650445    2.93075949122230    5.37186180897279
H        -4.38188026161441    1.48106006728914    5.43004766369101
C        -2.74602438159744    0.05541895590744    6.96947304597793
H        -2.29712227241642   -0.23906013076954    7.91369465054153
H        -2.16444283177656   -0.38421783244148    6.16092612564985
H        -3.76499350316899   -0.34580591649287    6.92541141060412

