34
CSD_code = HOCKAO | q = 0 | S = 0 | Stoichiometry = C12H12Cl2HgN6O | MND = 4
Hg        3.92614215916629   -0.25422117234237    4.82281502718073
Cl        4.46014245680323   -1.59929668714037    3.05798078213228
Cl        3.45288180793947   -0.11509914638537    7.06053422099343
N         0.46609720114796    1.04249767180599    2.08169962687641
H        -0.06394122288762    0.49426130775538    1.41551494845125
C         1.87775800355387    2.42499010991639    3.81067479541843
N         2.47328090414738    3.34429984657235    4.62229990451801
C         4.87019013885247    3.04025330191150    4.72881626345620
N         0.90489989523726    4.42478349714953    3.46359006231833
C         7.12028587376108    2.78572741138686    3.21110570376734
H         8.00176942782237    2.63585642004067    2.60906486505223
N         2.16151113014474    1.08568801343178    3.69345316651287
O        -1.47747079726999    2.03477401525439    0.56608124871944
C         0.09702051021857    2.40445545300944    2.14373459198415
C         5.58121980278018    4.18117628556332    4.37567225963738
H         5.23926445720624    5.15216405843614    4.69941491736323
N         5.25646894721031    1.82382708840476    4.34538920189016
C         3.58740416869454    3.15173419492508    5.51966608798551
H         3.43081511542210    2.24164457537636    6.10908428103714
H         3.63008072516565    4.01331034293895    6.18968201394231
C         1.84374784635149    4.52571121549426    4.35941086334079
H         2.09959943078410    5.43694645737183    4.86188502373947
C         6.35262731541345    1.70231796593354    3.60305396279795
H         6.61679899607168    0.69495233826107    3.30849166308898
C         6.72660378795774    4.05344613000415    3.60786836024214
H         7.29616271042589    4.92517917203694    3.32319725816750
N        -0.82328073492474    2.91836512182064    1.43894884634087
C        -2.48149553804352    2.72469070309140   -0.14624805181286
H        -2.91803811339565    1.98576096100999   -0.81535519069409
H        -2.05328551838110    3.54875112379253   -0.72095339292326
H        -3.24233316819728    3.11523370672295    0.53324823888922
C         0.90081294949895    3.11747993058525    3.09743237947414
C         1.42635645931394    0.47023480994073    2.81604389954618
H         1.60410287201552   -0.58489622409304    2.65520217057992

