55
CSD_code = HOGVOR | q = 0 | S = 0 | Stoichiometry = C22H26ClCuN2O2S | MND = 2
C         7.63109909355935   -1.22920191433616    9.97020382458672
C         7.99293602345202   -2.15736323844412    7.96168178381298
H         8.39918103434193   -2.23482482834748    6.97588832649992
C         7.24341106993962   -3.01912789881243    8.68683747873314
H         6.84626725373619   -3.98269889300602    8.44308735701048
C         9.01811514700703    0.03724880843342    8.38187585287863
H         8.88172931162618    0.87100861008879    9.06856993582600
H         8.84579813150464    0.34192860296347    7.35014101535759
C        11.16908795254619   -0.61009746608645   10.20564289511219
C        11.41467346552035   -1.85733491660685   10.74337566489626
H        11.39015778645243   -2.71992087247763   10.09568824833026
C        11.70530207718059   -1.95426990071881   12.09401447789462
H        11.92637246743130   -2.91859491931920   12.52639742057273
C        11.71880627127051   -0.81426400560761   12.88256075034144
H        11.92620233142152   -0.89424595978095   13.93866740619060
C        11.46563282036101    0.43114770201648   12.32847941969292
H        11.46478491219581    1.31183076400126   12.94966722909656
C        11.19730061489570    0.53774768764769   10.97380487671817
H        11.02247216157881    1.49546867139076   10.50935304363987
C         6.20122318582357   -2.99239040009821   10.92151167180009
C         6.78041564514454   -3.67187730474278   11.99234313317924
C         5.93304124502936   -4.24073714394903   12.93598134449028
H         6.35113654760987   -4.78091479645073   13.77057128115860
C         4.56302954434734   -4.11815100008246   12.82543718008077
H         3.92070823225139   -4.56272912609014   13.57064026484877
C         4.00904705925346   -3.41546151395921   11.77155357803718
H         2.93832411349062   -3.30961372129521   11.71169713805523
C         4.81511959945327   -2.84559260657587   10.79724457695888
C         8.27667408375710   -3.78704628591582   12.15634973227748
H         8.77523321517802   -3.26019270945353   11.33588187479610
C         8.71496174624232   -5.25307037436680   12.11260122322805
H         8.29632002250267   -5.81050735411944   12.94629751043691
H         9.79892799506655   -5.31835993915942   12.16716643009857
H         8.38825818704728   -5.72262206405057   11.18693186349637
C         8.70711286525981   -3.12163458730833   13.46540859274240
H         8.46611822910126   -2.05997973987716   13.44666891720139
H         9.77981680923350   -3.22357576858174   13.60201370522918
H         8.20742813070084   -3.57242880296854   14.31835523658290
C         4.22449855352036   -2.01742108176850    9.67940842888926
H         4.91150961683534   -2.02471729090836    8.82703343563296
C         2.87884099544957   -2.54720697383080    9.18403646556857
H         2.93958523367831   -3.61172759452659    8.96862810831914
H         2.59551064974598   -2.02685308576957    8.27198294637309
H         2.09381973009760   -2.38288481978597    9.91691867788359
C         4.08804261945719   -0.57182298847154   10.17075950505892
H         3.40601138422689   -0.52572706558022   11.01635845054072
H         3.70103408432746    0.06191326135906    9.37631343785797
H         5.05478008619483   -0.18333266111085   10.49078992239584
Cl        8.39922214329646    0.95752713631929   13.20299048614618
Cu        7.86557883246200   -0.14265297519173   11.51917400493748
N         8.21185085841963   -1.06280775966962    8.75695493843925
N         7.02986305279189   -2.43345456560467    9.90697453508417
O        10.88773735696994   -1.77218649467867    7.84668829011834
O        11.56473090236006    0.60012380267697    7.87525398507997
S        10.81265751769121   -0.47271963740908    8.46094211979423

