57
CSD_code = HOHNID | q = 1 | S = 0 | Stoichiometry = C27H22ClN6Pd(1+) | MND = 4
Pd        2.89731186733782    6.57539348129874    9.55000335448160
Cl        2.05455485483839    7.81099585969984    7.82319977032639
N         1.56352898338024    5.11383635167574    9.23405971138205
N         3.11054206583747    3.44253682997250    9.85342940440648
N         4.87069309048808    3.32072529229312   11.22085958551849
N         3.68106912970095    5.78127426917719   13.55321134084906
N         4.17100418447915    7.54048963026490   12.27098264848009
N         4.27925286912101    7.96925356797115    9.95256962730347
C         0.32574684150495    5.45942413596027    8.86346302367517
H         0.14189242686099    6.51993221956482    8.72759124168503
C        -0.67740761526768    4.53636892478785    8.63510749391685
H        -1.65109344796805    4.86929133729165    8.31725218943015
C        -0.40499665115712    3.19139256342997    8.83753461409589
H        -1.16588859603374    2.44088356234012    8.69329422524091
C         0.86072881465070    2.82790879662128    9.25403758087040
H         1.09392986544591    1.80005364783460    9.47742235226318
C         1.83677014477681    3.81161388063969    9.42438477968265
C         3.85499800186130    4.14087452257641   10.80454474921939
C         3.72941115311390    2.21240667899835    9.62813835613496
C         3.48744574333342    1.20492203480953    8.71146254393820
H         2.69132255817367    1.27152593752652    7.98841746305868
C         4.33531320498716    0.10762308093032    8.72902310032848
H         4.16810445395591   -0.69325813559682    8.02700846069065
C         5.39510284573663    0.02095724245873    9.62241212877263
H         6.02794457229490   -0.85176157126982    9.61039381001569
C         5.66913448283176    1.04459860163345   10.51501237510058
H         6.50645461381262    0.98578695169301   11.19069930812335
C         4.83016440029581    2.14407978457647   10.49524051125088
C         5.97358302573895    3.71453343582982   12.05226331640813
H         5.98305489428900    4.79939880526224   12.15018316030239
H         5.90017000617503    3.26368866988234   13.04324083299764
H         6.90859158426187    3.39324189644352   11.59189775764771
C         3.65136214686532    5.46664314422853   11.10053836249883
C         3.86786073021663    6.17892561458744   12.25576206616667
C         3.17375049144954    4.50584925364504   13.97689445973928
H         2.31473749160598    4.65422216223619   14.63339087469803
H         2.85771067876972    3.93396415711071   13.10604835284089
H         3.93485763216271    3.94489462018911   14.52179789309308
C         3.78291147503887    6.88186280835986   14.38448717618581
C         3.61495089114967    6.99493089703732   15.75275238379946
H         3.39077601826082    6.13797801978782   16.36627925957430
C         3.73711620813732    8.26000041494471   16.30444892535000
H         3.61270221509840    8.38583168387490   17.36791682693747
C         3.99442225170914    9.37092142037381   15.51156934833924
H         4.05441366331764   10.34514735963275   15.96927600263295
C         4.16892337072615    9.26058806560135   14.14022494628426
H         4.33284963732272   10.13719747311011   13.53546771339639
C         4.08823340930820    7.99500811716566   13.58737079749393
C         4.71618412185844    8.23878453999406   11.19471057623768
C         5.73751125975603    9.16203461978449   11.42607545002478
H         6.10949192158965    9.30687782458825   12.42683549800439
C         6.28503001838556    9.85055965142843   10.36118085629360
H         7.06908035780909   10.57240359648702   10.52612008623135
C         5.82189285324659    9.57495510515068    9.08304743005056
H         6.22173436196803   10.08151685284579    8.22080472908407
C         4.83738166229649    8.61776583957389    8.92456865244289
H         4.46238076309781    8.36904447167844    7.93739051499857

