64
CSD_code = HOTXAP | q = 0 | S = 0 | Stoichiometry = C29H29ClNNiPS2 | MND = 4
Ni        7.78527686827125    1.47561736061891   11.32486492859899
S         8.47130262310010    1.96625053829181   13.39077874096991
S         5.91374231966935    1.09020047721873   12.51539166157870
Cl        6.99367534204623    1.02281958814069    9.46767019634061
P         9.66624165000472    1.65606408851447   10.28914669381026
N         6.42412887623998    1.63667484993269   15.08744808575239
C         6.86863022667175    1.57901066771166   13.83118992320762
C         7.31567888259249    2.11270171973716   16.14160164055675
H         8.32923011206717    1.85206461207478   15.81090107652926
C         7.23499830070110    3.63346338106453   16.28263636973688
H         7.41134962367147    4.10897506635567   15.32099976508789
H         6.25844899237828    3.93815151197585   16.65024505280007
H         7.99541326891081    3.97543771067268   16.97950697096975
C         7.05749806726292    1.42250107821785   17.47553419545192
H         7.04039443262942    0.34131937658138   17.35779220895534
H         7.86373996010256    1.67600593986690   18.15895567213726
H         6.12285355597651    1.75652031465588   17.91818005683540
C        10.00769311789645   -0.04468107558506    9.73817226373447
C         9.43367188560711   -1.04635745214993   10.51883367115497
H         8.80233182347976   -0.75763515495418   11.36603712201469
C         9.63955992901168   -2.37627161859302   10.21228512561854
H         9.19046608656693   -3.15004599773125   10.81712583620450
C        10.41779803957168   -2.71244657345519    9.11466270989270
H        10.57733561286847   -3.75132116491473    8.86638363361777
C        10.97803990714171   -1.72006559947975    8.32806561112607
H        11.57157297532223   -1.98693759838734    7.46579987777148
C        10.77709330941687   -0.38449436341197    8.63483202857884
H        11.20377504984304    0.38737332636992    8.01129314281178
C        10.01316922786605    2.72727423145429    8.86203325405813
C        11.33366335593083    2.93770747532183    8.46958668687164
H        12.14149999457069    2.48024979950770    9.02465751768879
C        11.60970814862933    3.74091513095458    7.37904987705448
H        12.63431375958747    3.89714654637600    7.07372979002299
C        10.57661690546377    4.34723992089081    6.68141242057221
H        10.79734578634013    4.97470402713684    5.83038937707385
C         9.26512877295830    4.15338111737305    7.08050557190748
H         8.45968445779176    4.63168871095043    6.54342590422381
C         8.98100924146402    3.34694335895495    8.16885256563351
H         7.95991870780453    3.18417614222233    8.48170785572709
C        11.10593728342187    2.03117047078997   11.35020418424407
C        11.20803785781748    3.33702898479301   11.82341988549698
H        10.46759399692901    4.06553473200119   11.51700579976623
C        12.23787351690494    3.69248548908711   12.67157038681145
H        12.31442400127918    4.70712997172047   13.03415974222390
C        13.16856278199004    2.74216412067783   13.06294026633367
H        13.97327871087228    3.01672800782405   13.72905939061007
C        13.06202017090760    1.43918474312973   12.60720418465451
H        13.78349926504746    0.69724037262127   12.91765529835288
C        12.03073188806355    1.07837485858482   11.75696295487644
H        11.94613902285189    0.05904316268115   11.40698705860153
C         5.02927851323530    1.35907058220697   15.37867477680071
H         4.96875080538606    0.68739920811295   16.23693169430550
H         4.61711905036702    0.83743540259411   14.50824727697796
C         4.22755758360051    2.61045690889156   15.63173667352972
C         4.17465198813515    3.60945199336586   14.66640201989799
H         4.70210189131683    3.47846875621251   13.73363347800461
C         3.44957963247866    4.76432350463178   14.89313923071579
H         3.41673076122173    5.53446886704906   14.13700716011855
C         2.76241817693396    4.93104334037088   16.08431385860817
H         2.19520956674988    5.83267595146006   16.26120008837668
C         2.80009516385213    3.93560656000108   17.04495139225899
H         2.26096259448838    4.05670593164355   17.97304241118943
C         3.53105413765055    2.78159150193138   16.82011597916777
H         3.55299244122864    2.00559510716986   17.57304972540266

