58
CSD_code = HUBDIS | q = 0 | S = 0 | Stoichiometry = C25H27Cl2HgN3 | MND = 5
Hg       -0.95956611015362    2.04927837205607   10.03878356152678
Cl       -0.58774196815913    0.88051535480745   11.94714767289473
Cl       -0.92625886853778    1.88953957246463    7.72739399055035
N         0.86412999835069    3.79289213757060   10.19465427891778
N        -1.68447212348439    4.39871091352018    9.63759369941886
N        -3.44709381711990    2.46825835114213   10.21498206647218
C         0.63159929793777    4.94628339790044    9.71869889041101
C        -0.72841040712107    5.21130517276290    9.20272564339924
C        -1.00171480042451    6.23510374154761    8.29540939681825
H        -0.21930270016401    6.88266248556438    7.93516785030825
C        -2.29995964566569    6.38418903164162    7.83856340998023
H        -2.53950176058552    7.15662386304409    7.12284441920667
C        -3.28684200913791    5.52908939329598    8.29822219370073
H        -4.29882249067194    5.62248584104072    7.93997837829491
C        -2.93342141188031    4.53020373263714    9.20570232193595
C        -3.90631542959316    3.54561112148705    9.72537834821036
C         1.64497889060220    6.04858885730286    9.64152675480242
H         1.21921451894007    6.98639063740780    9.99309233761668
H         1.96820985306364    6.18358453227304    8.60975854394687
H         2.51592391826223    5.79574643517544   10.24280760087561
C        -5.36540921011700    3.87882765273613    9.63781762374069
H        -5.94277107528752    3.18109316094872   10.24093507168083
H        -5.70225083321230    3.79962123589203    8.60465810074726
H        -5.54826315310131    4.89509249947332    9.98144509252682
C         2.10802195169904    3.41147035477108   10.72418815912497
C         3.08733011004930    2.86993208717593    9.88643964466312
C         4.27498555581838    2.43439145723286   10.45533763642278
H         5.03653954201417    2.00937908980277    9.81792676392180
C         4.48889098317155    2.53148012429581   11.81792275265914
H         5.41781593936708    2.18480037635617   12.24497965540727
C         3.50658786118625    3.06204719621650   12.63448886668153
H         3.66658689629810    3.12658572550828   13.70064778798810
C         2.30489583247975    3.50601090253990   12.10606717607902
C         2.84204247264467    2.75483697734662    8.41274171004022
H         3.60778518874442    2.14148659167818    7.94516351343355
H         2.85053135010065    3.73649523102242    7.93712487787622
H         1.86697156845173    2.30507194404941    8.22048823034920
C         1.21893608589644    4.05770209952661   12.97666549307759
H         0.95037860945659    5.07206540157565   12.67926024349047
H         1.53012195666315    4.06747328323273   14.01769150757182
H         0.32795140826985    3.43508773057702   12.88195841066585
C        -4.25979486307623    1.45463515339157   10.74917523844612
C        -4.77501236562065    0.45732806189431    9.91600012275881
C        -5.51258259734884   -0.56698120259646   10.49129856402024
H        -5.91048061465622   -1.34590298839015    9.85734673831220
C        -5.73603624573625   -0.60414652474455   11.85523475338293
H        -6.31066624161715   -1.40976406480668   12.28682507739781
C        -5.21195589175458    0.38541305493092   12.66728659324947
H        -5.37428022879920    0.35118548206629   13.73454803149913
C        -4.46585499491212    1.42360980038838   12.13273924296934
C        -4.51880611677872    0.49532111085392    8.43999403549451
H        -5.10191433072267    1.28410132570304    7.96257851648035
H        -4.78829967561154   -0.45283250279161    7.98214370636030
H        -3.46593592292896    0.69532916983533    8.23734322980169
C        -3.86885871740081    2.48968764540965   12.99800176263450
H        -2.78363233699363    2.48199939460883   12.88550889543060
H        -4.11395045235642    2.31724714896909   14.04242739464140
H        -4.22725037848034    3.47885586865501   12.71036841963696

