63
CSD_code = HUCJAR | q = 0 | S = 0 | Stoichiometry = C18H34Cl2N6S2Zn | MND = 4
Zn        2.98382192387474   10.99775519091281    7.37504942925505
Cl        4.82279540137469   12.25549880487590    7.50692868554466
Cl        1.75736017820600   10.42414215674607    9.13725682934302
S         1.84089336908546   12.04467603661813    3.12033875215408
S         4.44102256485753    6.73468068182677    6.44109282654634
N         2.13711553797515   11.59794999561856    5.61778673600483
N         0.93432684635069   11.10029116159748    5.30767754027774
N         3.96175233331217   12.70578994244256    4.67894333108335
H         4.45969101642014   12.66126609509370    5.58530058255258
H         4.42224382848685   13.04882533964543    3.85593824857472
N         3.61145898412900    9.13519405742318    6.72536672450949
N         4.32774572913605    9.13758938874234    5.59317083908941
N         2.86297433902697    7.72292304248350    8.42006212206518
H         2.37334603244536    8.51769035437139    8.86388114793669
H         2.87591609017995    6.81570636579067    8.84904052245586
C        -7.25925464258984   13.18955839080613    0.53007317579010
H        -7.84511604269398   14.06292429315645    0.25447506688539
H        -7.83175304047513   12.60481888563609    1.24648594728699
H        -7.10702547267437   12.58387230174493   -0.36043597760119
C        -5.92135641014114   13.60690839793940    1.12791870638985
H        -6.09583435793507   14.22470934415853    2.01157944341235
H        -5.37351758880261   14.21404569063215    0.40364229714301
C        -5.07158178363415   12.39993660648139    1.51767947053199
H        -5.62041433409402   11.79184839386470    2.24048599173575
H        -4.89616509244737   11.78281465075556    0.63322705572584
C        -3.73076376674290   12.81245562390925    2.11989802414385
H        -3.18398800584280   13.42409687557555    1.39838215723329
H        -3.90715623090439   13.42651921428240    3.00579266103748
C        -2.88014903308182   11.60470444884591    2.50558889383898
H        -3.42464103519386   10.99630642730981    3.23085004202047
H        -2.70507976771862   10.98846698033192    1.62055362555549
C        -1.54078898916130   12.02455400349365    3.10335650611277
H        -1.71265610082195   12.64313362619548    3.98635891804709
H        -0.98724703742120   12.62326158638720    2.37571275483768
C        -0.69527385870297   10.80869518517931    3.50245788469912
H        -1.22376283796207   10.21387706948215    4.24848365592031
H        -0.51247034837847   10.19036644171027    2.62025364241603
C         0.59558553658767   11.22956024649827    4.08910984393653
C         2.77511976684096   12.13655546450617    4.59918572228967
C         3.54369146646721    7.96170906425170    7.31456387040830
C         4.83916600281376    8.01451297921905    5.27979316702801
C         5.67595653925081    7.74816735988120    4.08879815284916
H         5.76719996241934    8.67938545829641    3.52774688386068
H         6.67374291976155    7.44287464684274    4.41599468980716
C         5.07798990345389    6.64571110405481    3.20858002556240
H         4.08491014606563    6.95186750583528    2.87248535773856
H         4.96407915504660    5.73625348851180    3.80371888822069
C         5.96106277143311    6.35285843391998    1.99935138610359
H         6.95832166950452    6.06767721101745    2.34201503572860
H         6.06439604259222    7.25859651177361    1.39771793446726
C         5.38810484547344    5.23283005513024    1.13417486586131
H         5.28314041874740    4.32844387965932    1.73803926515023
H         4.39108488300485    5.51573194756717    0.78857629997776
C         6.27516355997970    4.93325046211093   -0.07160179201308
H         6.37207948100663    5.83447726375423   -0.68150714689248
H         7.27472821181157    4.66098130148846    0.27522085580135
C         5.71701006945828    3.80178662260777   -0.93123814295743
H         4.71782521215416    4.07262152465079   -1.27988104511178
H         5.62098587036491    2.90029988033003   -0.32185489211415
C         6.61012491036652    3.50954454113366   -2.13054447318710
H         6.19728601833590    2.70039623366878   -2.72812488678312
H         7.60606288569514    3.22010027019102   -1.80247595337064
H         6.70151335397257    4.39055349105867   -2.76209817295371

