11
CSD_code = HUDMEY | q = 0 | S = 0 | Stoichiometry = C3H2AuClF3N | MND = 2
Au       -1.06579979495493    1.45576774360843   11.91960672623835
Cl       -2.25280096431403    1.45610049909317   10.07750532692615
C        -0.04620907667127    1.45613783349479   13.47035484003457
C         1.38976135701016    1.45599712141273   15.58144084695833
H         2.01840521205801    0.55867031939570   15.62119770662955
H         2.01840532277715    2.35332340428421   15.62119851132866
C         0.47344877187483    1.45599895605657   16.81626379345855
N         0.63690010760465    1.45600470607770   14.41142330021564
F         1.20695789117545    1.45599839291371   17.93273307508893
F        -0.31308215154589    2.53178118445358   16.85258747949183
F        -0.31308667501413    0.38021983920940   16.85258839362947

