48
CSD_code = IMALOX | q = 0 | S = 0 | Stoichiometry = C21H20Cl2N2P2Pt | MND = 4
Pt       -0.07815018004704   -1.38663244458765   -3.73903948052359
Cl        1.29957046775082   -3.03176328205076   -4.48911152390688
Cl        1.68895766182850   -0.18891362817750   -3.02598621045366
P        -1.71556444779515    0.17197726307744   -3.23376304306234
P        -2.07246350955548   -2.42109728691183   -4.19157315050356
N        -2.43550081769596   -3.72918831843202   -3.18078691049229
N        -2.80300939615097   -2.84581639630934   -5.65410819337314
C        -2.08589203947509    1.06341865278562   -1.70360452029940
C        -1.01570639132578    1.36803752405851   -0.86815566321720
H        -0.02003897803141    1.05358830738171   -1.15324844227093
C        -1.24245779659010    2.06301487245486    0.30674181935375
H        -0.41598421225312    2.30364433992561    0.95791338013377
C        -2.53014671903446    2.44539769923543    0.64697046950174
H        -2.70750844415145    2.98517140247183    1.56518275708589
C        -3.59614291418885    2.13746995233012   -0.18538583287317
H        -4.59754689883833    2.43853994081132    0.08516505623439
C        -3.37977499152361    1.44673475747613   -1.36329629541085
H        -4.20557910789657    1.21069838833871   -2.02076535111288
C        -1.96387665145490    1.36358357689790   -4.57665906312124
C        -2.20243323488895    2.71597327542352   -4.36732807625425
H        -2.26755601193117    3.10404189369229   -3.36082867937041
C        -2.34962924787822    3.56023033740485   -5.45488461117358
H        -2.53500111321992    4.61174775650809   -5.29367133074323
C        -2.25339604294821    3.06317314158852   -6.74382720983029
H        -2.36624048555881    3.72756020407331   -7.58721741744565
C        -1.99802783386603    1.71594319039773   -6.95457222856959
H        -1.90815255446002    1.33061458476759   -7.95901228265621
C        -1.84628294652940    0.86927952520616   -5.87484237736823
H        -1.61914659750514   -0.18275849582432   -6.02738672753912
C        -3.49209387749087   -4.61182292757544   -3.19001244771089
H        -4.22617626851206   -4.59112298905295   -3.97179244410766
C        -3.37239872574773   -5.43540435980721   -2.11412189718414
H        -4.03637169405617   -6.23485237614049   -1.85005038457093
C        -2.20385064682309   -5.05207095914906   -1.40886862339628
H        -1.82633292317222   -5.50860117076371   -0.51583879922981
C        -1.65073569900456   -4.01011502046825   -2.08277255059761
H        -0.75153394519356   -3.44077326301969   -1.90324382296729
C        -4.12749465775248   -2.82227416249436   -6.03184072733225
H        -4.89476733632103   -2.50064273741019   -5.35404890535491
C        -4.21624047505630   -3.26142166567303   -7.31570975947878
H        -5.11492120129489   -3.35993671463228   -7.89233658340461
C        -2.90320515029449   -3.56551915263817   -7.75497363011949
H        -2.63218638673786   -3.93317796767028   -8.72429556037676
C        -2.06000992970345   -3.30239523918024   -6.72277298166077
H        -0.99316677025472   -3.39321767180830   -6.63333473300421
C        -3.12752148540088   -1.02589201383015   -3.53208016492168
H        -3.60087284023528   -1.31200719250475   -2.58864874276049
H        -3.87823855173387   -0.64302315019416   -4.22617610255954

