54
CSD_code = IPORAI | q = 0 | S = 0 | Stoichiometry = C20H28ClN3OPd | MND = 4
Pd        6.18435219766167    5.98234121534837    3.41606662932050
Cl        6.31777371925195    4.09784098988078    4.61591565891028
O         5.03622510123640    4.99128656309086    2.14605717549005
N         7.34296723142752    6.88464607110896    4.77119603162919
N         8.71776584440093    7.27002823999326    6.42145495558694
H         9.37511740368380    7.11075104226202    7.16732715645440
N         6.01936722886797    7.68303256229799    2.28663069688042
C         8.17933374876582    6.33099098140332    5.62179795687749
H         8.37894779615227    5.27727648915765    5.68184722676225
C         8.19528524009906    8.47858273025636    6.05564566159171
H         8.46103535397315    9.39300879350591    6.54347928133248
C         7.33516349286795    8.22801651585581    5.02424518911064
C         6.49423712600797    9.15280689257458    4.21061521855170
H         6.75491971304030   10.18492117367920    4.44710234459364
H         5.43619520632710    8.99332991297847    4.45101621550792
C         6.69628581271629    8.89182109622934    2.70898696063522
H         6.31830412433926    9.75593437755679    2.14345762207400
H         7.77115196391283    8.79427236914050    2.50484631111903
C         5.30847417740675    7.74015311768221    1.20452926438966
H         5.27300305210301    8.70555241927372    0.68616255651024
C         4.55300605047629    6.72183157960228    0.57355980505364
C         3.86880371647387    7.08373748327882   -0.60992823201793
H         3.97798098192182    8.10363048560394   -0.94496654234528
C         3.10152119764519    6.19304898898816   -1.30459349220935
C         3.01675384310475    4.87937054533557   -0.79876141795112
H         2.41225440267540    4.17728636055763   -1.34701084614830
C         3.65161931529384    4.45300505146533    0.33625734259734
C         4.45428672870558    5.38841827419149    1.07732836128684
C         2.34067900943895    6.54317437804982   -2.57396584714179
C         2.55137588826592    7.99901563409407   -2.99952969545489
H         1.99098503171382    8.19622218936355   -3.91142608381753
H         3.60161072011183    8.19829116670950   -3.20027070259310
H         2.19772754534010    8.68498405618217   -2.23318440477557
C         2.81941338530796    5.63930459540906   -3.71852858362738
H         2.63150040011933    4.59146366970501   -3.50256943028538
H         3.88830997115802    5.76795814774960   -3.87599565589956
H         2.30057911410893    5.89417612700700   -4.64057711891726
C         0.83963554342891    6.32842856746756   -2.33436891566622
H         0.62289553542281    5.29419908262373   -2.08232941247250
H         0.27474103608762    6.58699408750021   -3.22788817120763
H         0.49739012255664    6.95675054744427   -1.51458887128293
C         3.53337016117884    3.02075750971449    0.84440986178677
C         2.65253841527976    2.14853956752247   -0.05754420995579
H         2.61416087366844    1.14098997381142    0.35164605563398
H         3.05886659376190    2.08349571915184   -1.06495056063862
H         1.63371631669367    2.52816602010725   -0.10301101705607
C         4.92878309123038    2.38191437388865    0.89786137535101
H         4.84935979835430    1.34481217775905    1.21633910847138
H         5.56561123965635    2.90676154476048    1.60438703004875
H         5.39603972644746    2.41022707024763   -0.08536187850841
C         2.90986487276564    3.02714130904341    2.24772699961778
H         1.93998247099137    3.52191983581349    2.22883243944836
H         3.55402400444714    3.54514998704787    2.95251463467476
H         2.77370736196373    2.00624033947768    2.59770796271438

