44
CSD_code = IRIYIS | q = 0 | S = 0 | Stoichiometry = C20H17Cl2N2PPdS | MND = 4
Pd        5.69732670236134    5.58789700038512    7.94450160005010
Cl       -2.01991319866285    4.62808303687658    7.64687000814473
Cl        4.60888332332740    7.49219147753093    8.30282384187943
S         2.74404065332761    1.87841086651538    7.69665125117016
P         6.69732178423028    3.57867485937742    7.98058755223274
N         3.81996262155910    4.23827935417265    7.83154967041400
N         5.38099151510184    2.49205828537365    7.75908728772793
H         5.49016878003588    1.48756815389368    7.83449197336034
C        -0.29569808913676    4.54599984831407    7.70148112260759
C         0.44341349581936    5.72467030494218    7.77244782392428
H        -0.07013266408857    6.67239087137366    7.79193174654064
C         1.82103274881340    5.68620575561615    7.81798100867710
H         2.41635974479793    6.58731313059512    7.88003058119554
C         2.46375526528705    4.45268923211960    7.79283433392512
C         1.69484388037965    3.27458338503285    7.71952767822803
C         0.31448952302690    3.30310714635663    7.67355443250323
H        -0.26469276273384    2.39610099781957    7.61761574965695
C         4.11716557793162    2.98055242147527    7.78218666289865
C         7.11787978284495    3.23976411627587    9.72725789105021
C         7.68792914045067    2.04419348557665   10.15309801708882
H         7.96776422496499    1.29105390317741    9.42857791769179
C         7.90639490644061    1.82891090941469   11.50178568276145
H         8.35204520233314    0.90235121085010   11.83258705696016
C         7.55425479862704    2.79884356811395   12.42746109215946
H         7.72858123943190    2.62577057383976   13.47886311064479
C         6.97946063203294    3.98822318151480   12.00793219893437
H         6.70438370582304    4.74142702467460   12.73062178593127
C         6.75869725993266    4.20983434654164   10.66023101312185
H         6.30643790326217    5.14828940296519   10.31130114051783
C         7.98953408827183    2.69915900980352    7.06210360925429
C         7.69258934080134    1.96330332198555    5.91955114953221
H         6.66568176835884    1.86304493480959    5.59587185109306
C         8.71095259201269    1.36854292819028    5.19678861561196
H         8.47698189891632    0.78989206799166    4.31547108082546
C        10.02860388731366    1.52118351219193    5.59668466792588
H        10.82118814880537    1.05702824596637    5.02937642720520
C        10.33108261664020    2.27867611310320    6.71757292453034
H        11.35901463384908    2.40801215494221    7.02174911862883
C         9.31706658224845    2.87223753956427    7.44517564694505
H         9.54347919020999    3.46800749895190    8.31941164106818
C         7.41850107876978    6.69698859523149    7.84024959909415
H         7.39010031749883    7.53491375613753    8.54155249127219
H         7.44878777280626    7.08668205160506    6.81272450243051
H         8.30978838597459    6.08689041881218    8.02914544258643

