33
CSD_code = ISOQIS | q = 0 | S = 0 | Stoichiometry = C14H14Cl2HgN2 | MND = 4
Hg       -3.27842719805922   11.21838626120769   -1.95904028951964
Cl       -4.52062691322441    9.64635510947712   -3.07522743207782
Cl       -3.23372925935973   13.00191359676052   -0.54207263582416
N        -1.87242722630288    9.45865607971061   -0.89545367836283
N        -1.22374998087522   10.66084460310496   -3.20790511850888
C        -1.07235450062257    8.80837653563021   -1.74948890669412
C        -0.61681227258615    7.52017956669140   -1.47071274219376
H         0.01119704371450    6.99117171847183   -2.16824827269290
C        -0.99466740699164    6.90966886745283   -0.28607603400747
H        -0.65991105446243    5.90842219954963   -0.05919004284135
C        -1.80279295342754    7.60382995541321    0.59745871958335
H        -2.11392511185121    7.17042713798933    1.53418427951153
C        -2.21773672247224    8.87936850312441    0.24129500750952
H        -2.84997917796898    9.46367668446405    0.89744208972817
C        -0.70061710757957    9.51868520487872   -2.99176685435133
C         0.30347968037805    8.87498724914816   -3.89916683761368
H         0.60498907836503    9.56999134190502   -4.67937863195251
H        -0.12896408160068    7.99309768659271   -4.36940728418511
H         1.18254288280115    8.57071956384974   -3.33434633497215
C        -1.01036359558882   11.41024107608320   -4.37017180795808
C        -0.44464877443373   12.68813771905594   -4.26095663387202
C        -0.31453999908658   13.44779140126928   -5.41317970118813
H         0.12537725179467   14.43195237889386   -5.34317575536432
C        -0.74496447964091   12.97420661861265   -6.64142232113895
H        -0.64170496991855   13.58987374512442   -7.52198029989507
C        -1.31421282794239   11.71605951632976   -6.73583851563366
H        -1.66223990104508   11.34362633888158   -7.68720805048142
C        -1.43843583516469   10.92947726556177   -5.60632533782858
H        -1.90854036124833    9.95833027560963   -5.65694690095009
C         0.02192529882668   13.18797264599184   -2.93077916576719
H        -0.79212685797703   13.14367368751449   -2.20369427829741
H         0.37084341235029   14.21421808369401   -3.00525550903489
H         0.83334392119581   12.56808138198808   -2.54906472319247

