65
CSD_code = IVUFEK | q = 0 | S = 0 | Stoichiometry = C30H28ClPPdS4 | MND = 4
Pd       -2.82575280239193   -5.26674969963562   12.22555165426417
Cl       -4.33166863571766   -6.45887646580626   10.87655632750912
P        -2.08761962938587   -4.29164720365627   10.35893801083439
S        -3.57733019992826   -6.33572584775869   14.16111750001024
S        -0.83582006060210   -7.54889061820383   14.34204372580573
S        -0.82638921201163    0.12146066988804   13.06701336204505
S         1.83624008841359   -1.22699589556956   12.89817081499129
C        -1.63127585434881   -4.24141210969184   13.48930871782686
C        -1.37135936092075   -4.85302141113856   14.72324499801057
C        -0.58533806328087   -4.22521732298130   15.68318101792554
H        -0.39823733999666   -4.71948097640896   16.62602034461504
C        -0.04110593531312   -2.98166643098995   15.43447543198598
H         0.58045777555465   -2.50251655149542   16.17629685127235
C        -0.29864032399708   -2.34655920218646   14.22524564201212
C        -1.09401551841896   -2.97814727772807   13.27866282905475
H        -1.29540766887681   -2.45641114409575   12.35097726025688
C        -1.94041401048857   -6.20591387925310   14.98595326567334
H        -2.06583155478044   -6.40824135920004   16.05242789394738
C        -3.36047123956198   -8.03242714985994   13.55158328684654
H        -3.52350530186526   -8.72158272876135   14.38212748082968
H        -4.10531271869930   -8.17999478371235   12.76541184554508
C        -1.95111310156494   -8.11711935024656   13.01140478495553
H        -1.82626962863703   -7.46785414557075   12.11731269395560
H        -1.66206189477095   -9.13998591865491   12.77150311121460
C         0.32786620352545   -1.02380571816424   13.92949234235888
H         0.66057342358950   -0.53482281734891   14.84711510479285
C         0.17393818145290    0.38824627783348   11.56198583973372
H        -0.52533714968983    0.57588431697133   10.74855855824811
H         0.80323702976230    1.26428819760317   11.72460566226248
C         1.00981140978287   -0.84711950128158   11.32538793494099
H         1.79067406573569   -0.67732603934304   10.58574343171104
H         0.40413417438586   -1.70373135093343   11.02870466882347
C        -2.63670701047147   -4.94212610222819    8.75606077887666
C        -2.02006577440596   -6.10118504918754    8.29113776940514
H        -1.22205222088465   -6.54681128628166    8.87343907298668
C        -2.43628435300289   -6.67987672157557    7.10888046418598
H        -1.95999465872227   -7.58156421589714    6.75279417165855
C        -3.47330194718174   -6.10913184362226    6.38689548182061
H        -3.80396948999028   -6.56607355446948    5.46589835275275
C        -4.09460187758369   -4.96292053879999    6.85235293585204
H        -4.91085313184225   -4.52582139163432    6.29582339362039
C        -3.68342603484465   -4.37851477063655    8.03748093858959
H        -4.18180594152165   -3.49404094972037    8.40989180074359
C        -2.77397804160124   -2.60057530191501   10.38822928714207
C        -3.83894814201468   -2.39806786497552   11.26800380871153
H        -4.19107538976654   -3.23259822299761   11.89376231499284
C        -4.43953708933356   -1.15645840642313   11.35890652278372
H        -5.26008935774623   -1.00219683099217   12.04319193317550
C        -3.98294803966899   -0.10817500745800   10.57563798216049
H        -4.44627776038996    0.86396252442703   10.65053547644217
C        -2.92874656017491   -0.30544753807813    9.69957954973222
H        -2.57729843135165    0.51128148173188    9.08471603571200
C        -2.32265075339407   -1.54658250166211    9.60237887066802
H        -1.49449741365474   -1.68774826832246    8.92324356029325
C        -0.28904495023158   -4.18882589409194   10.08834197835039
C         0.24871969792464   -3.69984216153829    8.90028705445332
H        -0.40578025868536   -3.40526269801400    8.09122683343962
C         1.62060309715877   -3.62003567590926    8.74505521045663
H         2.03398681553980   -3.23366593284350    7.82468450878628
C         2.46369622649348   -4.04111699593896    9.76186144426064
H         3.53388661634719   -3.96806524557017    9.63932415182484
C         1.93416561267337   -4.57699549346338   10.92400281365405
H         2.58755297781594   -4.93063054938875   11.70687491995499
C         0.56255940731647   -4.65944728648105   11.08292151231258
H         0.13800903019611   -5.09317626866943   11.98355667593220

