38
CSD_code = IYEYUH | q = 0 | S = 0 | Stoichiometry = C16H13BrN2O5Pd | MND = 4
Pd        0.25135429417719    2.64436586486272    4.21831705765968
Br        1.60886967550206    0.68716850082020    4.59266344178857
O         1.73164312513254    6.14871301466677    2.72899924105647
O         3.75174982890775    2.75445451126711    0.86060056491269
O         1.82428142655005    1.91326927965554    1.69257437108456
O        -3.02835931859685    2.34421388121502    6.64010361327939
O        -3.63491293849427    0.28618906891173    7.41882334834842
N         1.31386511383197    4.02780714589459    3.15297850407090
N        -1.30309290933977    1.89610627354653    5.34155902341471
C        -0.72981664660259    4.28923682171417    4.60843507141342
C        -0.15972462596737    5.52061601012741    4.26774983792706
C        -0.73516516163065    6.70265071852584    4.73431531804896
C        -1.85459552265058    6.62185273659085    5.55007282326587
C        -2.39612177864724    5.40441953553931    5.94885951654783
C        -1.81379639175057    4.22506791478476    5.49180428383090
C         0.98022593583566    5.28503011212930    3.41741301392898
C         2.55913002176127    5.40362978487704    1.96916838426109
C         2.30063557839090    4.08431829114758    2.20799960430784
C         2.74961189526237    2.85079814572143    1.51849297291994
C         2.05949640297708    0.63206083055618    1.11166244777060
C        -2.08593659995587    2.84692012765317    5.82484622889242
C        -2.81294973219353    1.00902630153375    6.66389707572121
C        -1.74662064483324    0.71247444920304    5.86169352423823
C        -3.36094006378281   -1.11379529538667    7.46467647628429
C        -4.37037764126194   -1.75120498590581    8.40216030957886
H        -0.31088104050007    7.66063583962535    4.47402340212358
H        -2.30673502400599    7.53463539333438    5.90772919538215
H        -3.24381633708787    5.37402205473244    6.61662331019268
H         3.25068373446080    5.89993568530130    1.32079785150866
H         1.20355879540025    0.39100850648346    0.48177542941553
H         2.14587549121426   -0.09074878446329    1.92402758466779
H         2.97669285310692    0.65679784687467    0.52273406751225
H        -1.26450484814739   -0.21796565250250    5.63809177537052
H        -2.33716014314268   -1.27189862104199    7.82442601464699
H        -3.44527678579380   -1.53283902494523    6.45446750771112
H        -4.28053645016936   -1.31993504349313    9.39502608864789
H        -4.18967383087849   -2.82014267354743    8.45965183998566
H        -5.37907973707639   -1.57789456601017    8.03825987828242

