33
CSD_code = IZICOK | q = 0 | S = 0 | Stoichiometry = C8H16Cl2N4S2Zn | MND = 4
Zn        0.34655036658573    2.14528110082110    5.38462159103396
Cl        1.67393965175946    0.31053940531852    5.52494588623581
S        -0.77053254000295    2.35846650306244    7.65103116547568
Cl       -0.97033438281369    2.24062671354553    3.54185914478356
S         1.73960345315788    4.30699182016026    5.39427583022295
C         0.40401459821074    1.83676300803418    8.76356829670849
C         1.08293186764068    5.37616283941588    4.25056205199027
N         0.06896375196969    5.07567744372341    3.46333309449093
N         1.45675221739465    1.11671141044586    8.43104059814152
N         0.19381341323414    2.17603489687682   10.04271242294036
N         1.66176234241716    6.58353296469403    4.17460716271722
C         1.05516573664057    1.77229516560699   11.13230384750784
H         0.44667082762285    1.64115308457809   12.03008814755306
H         1.79934379348822    2.55422666970076   11.33159266967227
C        -0.44780065632539    5.98797523936853    2.46621101130808
H        -1.28098113015507    6.56162402566017    2.88992179072869
H        -0.83100254791587    5.39229982200520    1.63631897447490
C         2.42867800814147    0.65936862668150    9.39981513368226
H         3.24170098510210    1.39101103231851    9.47944419241542
H         2.84794066632763   -0.27891123169351    9.03376793591422
C         1.75312536357961    0.46978382483984   10.75402808412958
H         2.48550045602453    0.19789274968950   11.51208825503612
H         1.01284028907022   -0.32795271824175   10.67724513326959
C         0.65937261075673    6.92916358066118    2.00351668174371
H         0.26462264894851    7.67422116461800    1.31512741084585
H         1.43212562986596    6.35217860013589    1.49322828602138
C         1.26211513514336    7.60436961663985    3.23145393739766
H         2.14068664731313    8.19399851491222    2.95997970522356
H         0.52545141770075    8.27552556117378    3.69184732825984
H         1.58442306975902    0.81787748593788    7.45023914654936
H        -0.34082694563688    4.12758049335149    3.49262963711369
H         2.41947932021450    6.75939838040029    4.81427692054866
H        -0.61999606520141    2.73953220552917   10.22951852586956

