40
CSD_code = IZUPOK | q = 0 | S = 0 | Stoichiometry = C18H14Cl2HgN4O | MND = 5
Hg       12.54265775139742    4.07596230212754    8.77620003870986
Cl       13.44746358395508    3.76358312810386   10.88299262748909
Cl       12.36920771989380    3.09432260666187    6.74417879957249
C         9.41181490163033    2.66715242298574    9.04827759361222
H         9.82367507462033    2.14849800679436    8.19233777756742
C         8.24757279712497    2.22890460685656    9.66583845390494
H         7.73146823434725    1.35664089921329    9.29822511713881
C         7.78350839132176    2.92883031059217   10.76725642899362
H         6.89280447853961    2.61135879096337   11.28907351942953
C         8.48137070041282    4.04617322902918   11.19339997531650
H         8.14996207385762    4.61077450676161   12.05062614350548
C         9.62839782864243    4.43137906316716   10.49963073161268
C        10.41758355703920    5.60192260689000   10.89889450782913
C        13.32563986223009    7.12630933467102    9.64598279887033
C        14.17882651881890    8.23444681557438   10.15035157214546
C        15.38335393285447    8.53269489076517    9.52206530123228
H        15.68447396887514    7.95988055968430    8.65972685937151
C        16.15554540559354    9.56044184693549   10.04003177147029
H        17.09857330204442    9.82192244254390    9.58368744921785
C        15.69528863512345   10.24288862586871   11.15491072657243
H        16.26563350520238   11.04769241160255   11.59118531711885
C        14.47677868738608    9.86557884457539   11.70686823687110
H        14.07575657323111   10.36651500123921   12.57805301711037
C        10.14836884522586    6.28914953225452   12.18237039630586
C         8.99758609022730    7.04682441324765   12.37684706480147
H         8.27430954586176    7.13596346552575   11.57893796537931
C         8.79388735503618    7.69545936852884   13.58191943041273
H         7.89979663697618    8.28270107682066   13.72933087171029
C         9.73238759894166    7.59213481750106   14.59579554920090
H         9.56710400092070    8.09686340577464   15.53575516447333
C        10.88121668463303    6.84232727460167   14.40376698430028
H        11.61345246405921    6.76005588719540   15.19246733246727
C        11.09634588893195    6.19593529238298   13.19959483812219
H        11.98142615870662    5.59565795634485   13.04346297383464
N        10.08515046206801    3.72876412095207    9.45467649668643
N        11.37294837130679    5.93943810710112   10.11320458019191
N        12.19776220860953    6.95238543566564   10.38648952936624
H        12.10794288044732    7.51934644343408   11.23453102814643
N        13.73485623803281    8.88900495441375   11.22333529037642
O        13.61100108581635    6.44811519464160    8.67301973948449

