41
CSD_code = JICBEF | q = 0 | S = 0 | Stoichiometry = C16H17Cl3N4Pd | MND = 4
C         7.28574115431809    5.02752870826940    6.35231732478329
C         7.10234754465012    5.01865239371798    7.74510674015056
H         7.21741481868377    5.94909060341437    8.27842112356063
C         6.70018635309710    3.88619947099184    8.40219178717566
H         6.51108085101289    3.94361043516013    9.46110132872692
C         6.49883479356206    2.67588408180002    7.70890259781943
C         6.80308387395762    2.65921175750267    6.33252964035690
H         6.77878234707229    1.72822994219254    5.78927552419136
C         7.17081861373801    3.79906971361141    5.65895629027824
H         7.52285190606809    3.70208139606138    4.62267007304068
C         7.54756932865511    7.74031042289124    4.09631424928612
C         6.82114146226203    8.26226506717673    3.01783761459345
H         5.95599076215881    7.71272992785270    2.62064734828196
C         7.17688899622200    9.47698577100362    2.46901283023612
H         6.62390592912688    9.88618328917057    1.63812624086242
C         8.25734363310974   10.17670877630869    2.99184856443431
C         8.97995931911625    9.67549935084146    4.06630143693004
H         9.81712366162803   10.23112019796290    4.45855973100559
C         8.62413894726488    8.46314280389377    4.61819161564103
H         9.17594731704931    8.04565043941986    5.44606322042963
C         5.95601442762893    1.50528454417664    9.78025676436697
H         6.85992875893875    1.90009864229607   10.24688523747496
H         5.83993978431449    0.47100660657414   10.09667024584642
H         5.09443925301436    2.07765777339765   10.14070023951315
C         5.61683425351022    0.40839095089628    7.59058294889435
H         5.01318701138684    0.72435771995078    6.73838475527922
H         4.99831109882406   -0.22167671433431    8.22610333660952
H         6.45831798642120   -0.19021536758682    7.22518457493557
C         4.29604995001076    3.88367325594449    1.57766901628298
C         3.36110459561816    3.33580398677143    0.64544337040051
H         3.76907058865081    2.42382015416335    0.21000982537789
H         3.17230898353061    4.06017872538042   -0.14663555841488
H         2.42647951661184    3.10985245505054    1.15865256786353
N         7.18752164313776    6.49971499284211    4.61677728226687
N         7.57621375429627    6.23147254990696    5.78711838387344
N         6.06663831737038    1.55400903268041    8.34331150594761
N         5.04902772806692    4.30469964475643    2.33410214516690
Cl        8.70425295628510   11.68886332991347    2.29797669526276
Cl        4.30865398878113    5.75109829270001    4.84589379582155
Cl        7.99329096201508    5.10236134320808    2.13364324016624
Pd        6.15086282882392    5.37869353206294    3.51329434527910

