38
CSD_code = JIHXIH | q = 0 | S = 0 | Stoichiometry = C11H21Cl3Si2Ti | MND = 8
Ti       -3.49220719902083    5.99893350976078   15.40152571843103
Cl       -1.34297920145442    6.05604566556054   15.40048372993306
Cl       -3.76244328202375    4.56815567659741   13.80014150948030
Si       -3.72878119118246    8.06128374806454   18.35059365955360
C        -3.58333190332236    8.23425945069548   15.40129769186327
C        -4.27169162560973    7.78810476449599   16.56037063172584
C        -5.40930823392993    7.06858628970974   16.10561903226687
C        -3.73817652787440    9.94446539619241   18.67725252401012
C        -1.96244646784483    7.36122662670528   18.52970603107469
C        -4.95351888146041    7.16072891108427   19.50160045304069
H        -2.72883063849065    8.90234867071927   15.40131155542031
H        -6.18882415244620    6.66469714134325   16.74101208685691
H        -4.72189942855034   10.37368341782192   18.51607555218020
H        -3.45377670029472   10.15185084952091   19.70305620202885
H        -3.04104118555425   10.46893235624560   18.03136232787697
H        -1.95918086188162    6.28310550180693   18.37343105617287
H        -1.28566751010569    7.80011807356812   17.79873986869360
H        -1.55015634276457    7.55295466068006   19.51572070674245
H        -4.99055089455677    6.09971926857956   19.27036250578296
H        -4.65531838583321    7.26144923925398   20.54006920893430
H        -5.95933348670593    7.56062186922881   19.41190445790125
Cl       -3.76261969873738    4.56841904670304   17.00323373830799
C        -4.27145239658014    7.78789720330583   14.24216577469634
C        -5.40915867394398    7.06844860607385   14.69681167051302
Si       -3.72839993865229    8.06098438539168   12.45196946471075
H        -6.18855331903188    6.66447546453681   14.06133127003979
C        -3.73513316974152    9.94428621098609   12.12593201908730
C        -1.96303360327106    7.35869700450252   12.27200614868324
C        -4.95464194474139    7.16243427419833   11.30099150317752
H        -4.71817632182108   10.37487977953574   12.28754809461502
H        -3.45071880126895   10.15165831379500   11.10012753485189
H        -3.03704426236572   10.46749743883168   12.77181982918262
H        -1.96099447346824    6.28053310474836   12.42802920703793
H        -1.28538176196097    7.79665273753138   13.00273767706462
H        -1.55096112418360    7.55011600228326   11.28584749462205
H        -4.99282467160259    6.10135126068094   11.53172475460731
H        -4.65680364468343    7.26331753324011   10.26243439579933
H        -5.95993809303799    7.56348054602044   11.39135291303255

