38
CSD_code = JISCUJ | q = 0 | S = 0 | Stoichiometry = C12H20Cl4RuS | MND = 9
Ru        1.71456406342490    3.30324992059902   10.84496649877220
Cl       -0.41795790682747    2.51863525125917   10.18687554008435
Cl        1.86664843213768    1.06473183269117   11.62215568762051
Cl        2.88367804192801    3.64904050523391   12.87711098480978
Cl        6.29652964562573    3.39095546925765    9.32650513885740
S         0.00135182851563    4.71196096804653   11.97602215349833
C         3.69972279779774    3.44583925924393    9.93491435263594
C         2.95276538736468    2.66368117513808    8.99130561214445
C         1.91542648640541    3.48894675115208    8.47483382269759
C         1.98006557162867    4.75928845501681    9.13355494595355
C         3.12061399598774    4.76703515906547    9.99308200338442
C         5.00069811163996    3.04208088362438   10.52765807884437
C         3.30913521083504    1.28124164620300    8.57002472898642
C         0.97079413360171    3.15348956301536    7.37931413256059
C         1.09795558625417    5.91532757079831    8.79182332196003
C         3.77003438416728    5.94384147142459   10.64052920446957
C         0.75481052646354    6.04975851384058   12.94744870979440
C        -0.45003999359927    3.61322685861516   13.33941932001586
H         5.24074595751556    3.61149505541649   11.42521965490033
H         5.03757175255099    1.97276154613099   10.73753506288269
H         3.19536313639154    0.59564846201008    9.41365539887271
H         4.34801809340238    1.24892026132456    8.24166887086779
H         2.66363993490602    0.93526689854814    7.76757733952245
H         1.36883284568654    2.35935384188161    6.75254895205103
H         0.77343943542168    4.03314277894919    6.76994420888035
H         0.01907128748381    2.81087199427644    7.79667539170520
H         1.19629728657325    6.71769627922672    9.51858597863949
H         0.05620023628521    5.59882328985414    8.76316968549953
H         1.36619755881409    6.30468342609451    7.80808541100670
H         3.91959953534724    5.76037985791026   11.70566580454147
H         3.17236971736792    6.84338564940735   10.51821161249157
H         4.74730649789485    6.10717993533439   10.18481076991906
H         1.03316598463121    6.83837573277000   12.25701456608212
H         1.62998423746996    5.66795440326039   13.46741502403451
H         0.00891984196368    6.41600033084372   13.64615605913050
H        -0.85489372318506    2.70527182901226   12.89683523412468
H        -1.20160588043514    4.10587623096354   13.95032315450577
H         0.44427996056378    3.38558094256350   13.91705758325583

