28
CSD_code = JOMYES | q = 1 | S = 0 | Stoichiometry = C12H8F5N2W(1+) | MND = 7
W         0.70665525356922    6.15942614028395    9.55069022679890
F        -0.65135156135572    7.21903605227927   10.23119304991019
F         1.49842623591441    7.82366859866383    9.40979944753286
F        -0.69457245897861    5.81892467967347    8.32058100952569
F         0.51115910024625    5.40033607728424   11.22538112183745
F         2.50902759289222    5.71238383580671    9.93707310883707
N         1.67703225214847    6.01508077126869    7.49571822542865
N         0.82143471621198    3.94377934622817    9.04421897495361
C         2.06188095654241    7.02934852779795    6.72530124524887
H         1.77524583006363    8.02508425524604    7.05679728272380
C         2.79823797252993    6.84999096508503    5.55004333849222
H         3.08654549459302    7.71074328677672    4.96745159840477
C         3.14723690784665    5.57869141669689    5.15662455566332
H         3.72208204439079    5.41076406265038    4.25775923651851
C         2.74180523474048    4.47982689667668    5.93831311897218
C         1.99987104075775    4.74899518242685    7.11104475411877
C         1.54708915348782    3.65485549980914    7.92838803196163
C         1.84988855100717    2.32852066449109    7.54458247943016
C         1.36797931905222    1.28724450374994    8.36093386633016
H         1.58571205116113    0.26165975420496    8.10146716308865
C         0.62126433961239    1.59550231498104    9.47462009069495
H         0.23113558581952    0.81959651094036   10.11430216016744
C         0.36800748553557    2.93534065446072    9.78455924206389
H        -0.21775962090520    3.20341025930796   10.66122681648442
C         3.04364765344679    3.12895857110274    5.59392948443463
H         3.61950414816688    2.94761897519118    4.69946893025468
C         2.61566708013004    2.09772209826743    6.36357791935574
H         2.84304764137342    1.07759009864830    6.09495352076667

