41
CSD_code = JUKHOO | q = 0 | S = 0 | Stoichiometry = C12H24ClN2PZr | MND = 8
Zr        0.50634717069916    5.36580460071138   10.05276067133205
Cl        1.17140510983373    3.57970441157943    8.66476665394945
P         0.88484110349784    7.99872095094155   10.57230656475885
C         2.33412081501062    6.97957149339007   10.77761927911724
C         2.75979994962683    6.39123918574285    9.57838633999259
C         1.91480806633153    6.72304922509344    8.47722705099593
C         0.84244109491014    7.54807888040592    8.84623468002493
C         3.03225782806102    6.82485299713153   12.10384372637957
H         3.00564582284050    5.78229144228184   12.43739054545852
H         2.53838150553072    7.43952221268939   12.85639738646635
H         4.07355164353296    7.14600823549555   12.03766924756038
C         3.97851388643088    5.51300407008643    9.45239462767664
H         4.70128001520036    5.95992697064753    8.76662364219952
H         3.70644244272515    4.52632192750194    9.06555264221885
H         4.46203061813689    5.38224280910780   10.41875608902177
C         2.13530395343289    6.27506054016858    7.05666483095731
H         1.21835715640967    5.84800915341743    6.63912383538332
H         2.91826870006909    5.52178469672747    6.99956461338282
H         2.42669607446023    7.12387369327798    6.43251895271929
C        -0.19971123135051    8.03229607902030    7.87205070596807
H         0.27008515535312    8.51385821929744    7.01204924277577
H        -0.85919166115474    8.75811544469359    8.34756569024213
H        -0.80718912194091    7.19519888128371    7.50637600199489
N         0.70939033805911    4.58748292382889   11.89869756244991
C         0.74407418234287    3.13774982141742   11.98403044892869
H         1.04953581906575    2.81848373445684   12.99486356412270
H         1.47353413624609    2.74027355240529   11.26909135260310
H        -0.24582474957511    2.67680603992980   11.78025992970082
C        -0.18730566398731    5.12724702643113   12.90515849619199
H        -1.21718981626782    4.72342753454002   12.81480384948460
H        -0.22289794701164    6.22220581457344   12.82120109482509
H         0.16830434256567    4.87199214298287   13.91812227269943
N        -1.46669222472344    5.39827677566193    9.65731216779439
C        -2.36355611557373    6.35766134150008   10.27614951342143
H        -3.28487791031140    6.46485238844427    9.67895955425280
H        -1.88382342254367    7.34114536650006   10.34162258196863
H        -2.67227746555719    6.04850934565784   11.29435270283763
C        -2.11418086318870    4.09787258885714    9.59773243841803
H        -3.05027562493630    4.15915675379469    9.01675267165667
H        -2.38533284485300    3.71769561397002   10.60509821045341
H        -1.46009026738564    3.36832511435402    9.10664856762055

