66
CSD_code = KACROY | q = 0 | S = 0 | Stoichiometry = C38H24CuIN2 | MND = 3
I        11.61921181122000   -0.53527027648553    4.32995173049918
Cu        9.86478723352412    1.22178022776644    4.13188574278142
N         9.81933113240571    2.65554823484574    5.47092636655431
N         8.49604798083912    0.87255108338922    2.84105345639843
C         8.83343490554181    3.52331374355862    5.62191281337513
C        10.80094247213844    2.60341416868737    6.39863663037121
C        10.82699172324556    3.40329141794301    7.50130719936479
C         9.78415309881380    4.33102694327243    7.71348477131964
C         9.72478364099591    5.18058732997717    8.83458100066195
C         8.68022243486638    6.05051677066051    8.98752319766158
C         7.65338825183759    6.10381959371763    8.03157503535428
C         7.68343590649196    5.29418740631059    6.93045330959142
C         8.75321039249855    4.39249461400261    6.74044423639051
C         7.77202338929594    3.56013197155583    4.59004718899185
C         6.86906532377581    2.52020314596716    4.51180082303495
C         5.83930156734967    2.55251487174762    3.55165621436201
C         5.73029310286500    3.60010404484020    2.68451286045349
C         6.65450019264734    4.66573883873409    2.71855976825487
C         6.57905371571272    5.74384078776015    1.81280358158447
C         7.49269082642742    6.75916068572397    1.85495970762445
C         8.52689399568792    6.73798854575980    2.80288506621670
C         8.62683827938437    5.70934482141575    3.69735380568562
C         7.69217439384040    4.65193899149162    3.68721516102795
C         7.52639295926525    0.10763757198664    3.32418229511438
C         8.68032504270866    0.94701422490194    1.50730324892980
C         7.90328596058572    0.27228367422183    0.61482494637417
C         6.85636813841292   -0.55278389265784    1.08544266737387
C         6.00594031407681   -1.27679508855606    0.23009036577466
C         4.99713026317674   -2.04533528725797    0.74496965966748
C         4.79276669459729   -2.11468946479788    2.13193036032292
C         5.60420689139900   -1.42739638356152    2.99111002578314
C         6.66177700757649   -0.63805179952261    2.48975224271300
C         7.37579802527681    0.13409654656010    4.79468313352166
C         7.03722575993911    1.33847041375405    5.38380964113985
C         6.91943369126502    1.43455392387397    6.78048256017359
C         7.15600698018571    0.34380750741339    7.56837223893042
C         7.54852375788735   -0.88768337949782    7.00408976416705
C         7.85952111045439   -2.00561859264510    7.80554296770186
C         8.29028112024530   -3.17254975871789    7.24046954590402
C         8.42968702413090   -3.27498972311316    5.84820641752566
C         8.11912262099252   -2.21747025009013    5.04089004059912
C         7.66254437093509   -1.00192632501973    5.59284330741346
H        11.58171981020431    1.88030009624582    6.21534314143344
H        11.63386868562312    3.32721655494768    8.21290417199280
H        10.51627034551738    5.12792395414951    9.56752970594996
H         8.63552894423065    6.70133340571184    9.84802144357939
H         6.83340294905368    6.79179704080179    8.17429024229257
H         6.89082334452058    5.33374880920603    6.19798621223148
H         5.13493711163845    1.73329080100934    3.51877870632125
H         4.93741488105487    3.62300444836310    1.95070685032071
H         5.78416976764641    5.74750584510857    1.08065029685415
H         7.42912722603637    7.58079727170146    1.15709110501127
H         9.24832965032432    7.54144377180648    2.81918740227601
H         9.43016254997846    5.69481798885700    4.41996975725087
H         9.49247286476584    1.58400848327719    1.18545780477671
H         8.07914112013374    0.36289477406242   -0.44573110936706
H         6.16661822449740   -1.21495678054940   -0.83633587905087
H         4.34794779193986   -2.60274077210634    0.08623490332469
H         3.98522330264219   -2.71895793048846    2.51780961776688
H         5.44886608758596   -1.48031869614777    4.05849646251423
H         6.63452197886573    2.38137269368485    7.21787649495096
H         7.06554980963194    0.41722135513041    8.64270893179441
H         7.76559977473589   -1.91264558618294    8.87821709394619
H         8.54059975874467   -4.01922238522161    7.86203347044121
H         8.79798509146932   -4.19296558438530    5.41687890750630
H         8.24540542465004   -2.29657143890287    3.97156916919096

