41
CSD_code = KAGYIB | q = 0 | S = 0 | Stoichiometry = C17H17AuCl2N2O2 | MND = 4
Au        5.10029928292191   12.38206727230802   14.81396330366760
Cl        5.30001675832881   13.41926430463292   12.73632620706476
Cl        6.66660253271368   13.61841161781208   15.78278885207112
O         4.57789173121509    9.28086326812418   15.02374242839494
O         0.58243045035778   12.12268400741847   11.19170966782425
N         3.70323791541577   11.16459951026858   13.96674778181900
N         2.05534712255342   11.35523445912879    9.64624080493711
C         2.93314611750439   11.66450543748888   12.99027330322939
C         2.47124566437301   10.89386705758712   11.94762866368681
C         2.81621651472539    9.53789151157280   11.92038226241056
C         3.52275515725013    9.00494288126040   12.97073501127964
C         3.94751330062590    9.85116824817617   14.00699150412422
C         4.75064859733998    9.89945875476773   16.26027729204457
C         4.72771236299836    9.02054943373351   17.34111537217384
C         4.87074058108837    9.50842624389764   18.62404441717731
C         5.02479764143852   10.86845758295538   18.83032433520657
C         5.06196587445778   11.73470395276659   17.74955505905089
C         4.94021503153322   11.25803353834224   16.45562483042975
C         1.59927305516041   11.53401110704539   10.89918372230199
C         1.43431027943529   11.96877727114316    8.48877370064899
C         2.37509812584075   12.99373504371784    7.83247639332575
C         3.03127809723244   12.23177311306189    6.68433239199316
C         1.88100094073315   11.38716679316709    6.14341237362763
C         1.14473573080008   10.91267734282795    7.40044208155355
H         2.70877807521477   12.71766890321110   13.04092203949949
H         2.49751520267121    8.90990601557033   11.10177200836749
H         3.77586147302820    7.95926841819853   13.03066303749385
H         4.58979128713520    7.96882045467683   17.14553252035775
H         4.85634373125023    8.82622963393835   19.45991609866512
H         5.13227431371615   11.26119360929213   19.82922909125142
H         5.21656003897816   12.78873493233132   17.91315311277457
H         0.52237698049413   12.43765659839441    8.86371296457485
H         1.78942028787103   13.82319643661188    7.43686959957456
H         3.09212668530958   13.39356494571832    8.54821228541698
H         3.45382162997364   12.89485531174297    5.93196668251688
H         3.82931280377052   11.58825815619232    7.05941657114836
H         1.22326834549734   12.01302242799786    5.53948035166686
H         2.22128919816207   10.55623379435586    5.52762331747393
H         1.53331871407736    9.94625388464808    7.72556238462945
H         0.07672682115321   10.79860026487235    7.22672167767542
H         2.96903554568170   10.95106645905061    9.50675449688256

