36
CSD_code = KALTOH | q = 0 | S = 0 | Stoichiometry = C12H11Cl4F6MoNO | MND = 6
C         9.80503519257259   10.61587656625802    7.44649155121549
C        10.00074419692239   11.74171416740084    8.26967852042575
H         9.32389999615011   12.57880571869624    8.17365058051392
C        11.04247418398201   11.75590052795520    9.17453790784244
C        11.91301992889290   10.67721375516042    9.29758223188781
H        12.72406798874188   10.70493785100381   10.00852993829798
C        11.71831397010009    9.57007650107798    8.48155492225538
C        10.68292976124387    9.52327437713439    7.56712656835177
H        10.53207402262910    8.66159388864322    6.93226979386198
C        11.27228429374246   12.95102771551024   10.06471384442684
C        12.62700557906216    8.37438024618280    8.61656391239301
C         4.50073866319074    9.89261615238090    4.16680912592351
H         3.93823204072698   10.51756038195256    4.87342581230137
H         4.66086538000484    8.90260615671415    4.60609466008494
C         3.81019066333212    9.84309855100789    2.80875232556399
H         4.11951955913111    8.95612040723507    2.25531020656129
H         2.72754321173098    9.84411118656196    2.90142539093166
C         4.36004342554870   11.10217102664897    2.14601520557106
H         4.28962376273754   11.08319145472000    1.06185659505410
H         3.84389565469523   11.98608247075700    2.52157596287616
C         5.80613959897122   11.08541339945088    2.62686585514800
H         6.25118780337128   12.08341458125130    2.69353793146808
H         6.42929301939548   10.45110048983623    1.98192570749024
Cl        7.11020727662854    8.26599289102624    5.40248461215888
Cl        8.75157238040137   10.30922364967717    3.50614191817379
Cl        7.34253879909933   12.82423239605492    4.99359145977824
Cl        5.75698046413069   10.78300074960487    6.93804395460722
F        12.85211838989268    7.76801488354577    7.44352963547933
F        12.09981725988185    7.44141394594956    9.42930567318772
F        13.82401014912649    8.68727896856097    9.12600879266025
F        12.47837585825251   13.50390180613591    9.85509754413187
F        11.23358035096133   12.61897103755241   11.36545790523819
F        10.37004142495117   13.92104531427775    9.88917200870380
N         8.80765966605659   10.58737767152552    6.57304292316863
O         5.77969892962036   10.50666913775095    3.94105201932744
Mo        7.49387715412280   10.55198997479838    5.42977700293773

