42
CSD_code = KAQYIK | q = 0 | S = 0 | Stoichiometry = C13H25ClCuPS | MND = 4
Cl        2.00537336239207    8.83226113671696    0.79368206279763
Cu        4.00839859673381    9.66578245972816    0.89855603712864
P         4.95098494493800    7.67471263721632    1.42575472049054
S         5.22484532069454   14.14731244958004    1.27434674166596
C         5.13271138444562   11.22942727045803    0.79307846917517
C         3.95422602883161   11.57661309244115    0.59690045605195
C         2.96892181386108   12.64983519299976    0.40404614533586
C         3.82145001192314   13.90199139469820    0.12282549242961
H         3.21744433579350   14.80277280586999    0.23019470427401
H         4.24167538869423   13.86956370428191   -0.88289745020691
C         6.56350665659031   13.12041928895513    0.56164663217059
H         6.49006997578655   13.21213963818691   -0.52218860225339
H         7.48545412705382   13.59314262783005    0.90008414687331
C         6.53145969920607   11.63991675155246    0.98717528090354
C         7.48228078430657   10.82074345362163    0.11349441132625
H         7.42728424847793    9.77231699831675    0.39965595834499
H         8.50589712427334   11.16779098305278    0.23751325974430
H         7.20922500608712   10.90475155873043   -0.93655971281172
C         6.89864371356067   11.49518131739510    2.46540555787118
H         6.27285113988753   12.14937276685514    3.06849040014366
H         7.94099979196996   11.76342324475720    2.62403661068642
H         6.74264497976999   10.46786287995709    2.78992895381055
C         2.04569894780459   12.35368987502225   -0.77822962527892
H         2.61821582071091   12.22787118308837   -1.69588438723942
H         1.33428451555136   13.16494490763547   -0.91653175760970
H         1.49853762352591   11.43333582550526   -0.58563931958707
C         2.15480931845073   12.81965128669117    1.68843142438227
H         1.64476483863764   11.88905415713692    1.92679710227330
H         1.41293053354795   13.60505459609894    1.56077479989366
H         2.80937395314543   13.08535670138960    2.51655299383524
C         6.67805173668194    7.12127797432692    1.76178338540165
H         7.10178253163192    7.71727724964316    2.56822864337827
H         7.28387968423403    7.25833257978492    0.86770468475832
H         6.69118552526127    6.07006178577678    2.04637684957184
C         4.09000714103676    7.07525514051531    2.92010976024311
H         3.02454974024611    7.24664224123338    2.77131762779574
H         4.42309349424388    7.64172655154571    3.78909662793377
H         4.27961375669594    6.01267852209530    3.07422901015063
C         4.41920751595312    6.44385934583755    0.18662712314626
H         4.58707352471300    5.43080349575395    0.55299264400081
H         4.96584387063129    6.59811947868835   -0.74279853408131
H         3.35734749198566    6.60497344915063    0.00509067097558

