37
CSD_code = KAZKUT | q = 0 | S = 0 | Stoichiometry = C14H14Cl2FN5Zn | MND = 4
Zn        1.83939780576772   15.90925793082283    9.29242178041615
Cl        1.90732272502140   15.40727121915296   11.48150760076494
Cl        1.82655917437891   17.80833486897256    8.25406024722195
N         3.14023776295912   14.61688470002664    8.28857929883973
N         3.30968407624472   13.31665354245286    8.53469410198203
C         3.74723526040446   14.88099378185865    7.14343494310414
H         3.74238873230790   15.87651607574772    6.74578897310799
C         4.32726298628123   13.72016087376954    6.63180878241677
H         4.88863739816125   13.61447308470655    5.72734811696487
C         4.02174334011634   12.74142791199451    7.55095408143549
H         4.26363841896254   11.69838174733255    7.56082829765747
N         0.11594230456734   14.85024852245633    8.66867507357044
N        -0.43229329619039   13.73683285568642    9.15948048979545
C        -0.81460356506419   15.45463361017796    7.94525161264488
H        -0.59312913794142   16.37440776929477    7.44063945458746
C        -2.00150400269829   14.72361321307703    7.97882918396830
H        -2.92935944766671   14.95989900522880    7.50187892482201
C        -1.71651507421439   13.63522987489892    8.77183722409310
H        -2.34418744239594   12.82652563344337    9.09067927632193
C         2.73630494879257   12.68964114993882    9.70835393711759
H         3.42451033218976   11.90545183864683   10.03669027931062
H         2.66999185214730   13.45451029281412   10.49044403442064
C         0.28933499649773   12.82909994428632   10.04035137593145
H         0.64218065786280   13.42135357662574   10.89499842947762
H        -0.43918826022686   12.08483325918551   10.37923606068438
N         1.42056392182813   12.16538657999582    9.45872756084477
C         1.25141502663275   11.01205882482087    8.68634196121610
C         2.24474835819433   10.03108807998249    8.60748252337302
H         3.16824955125849   10.13215088932666    9.15344450056204
C         2.06315355905416    8.88567860100913    7.85751434152768
H         2.83212080038111    8.13133221002936    7.80568792481591
C         0.87498939193449    8.70387690144710    7.17534025839901
F         0.69616110724471    7.58730755785205    6.44035867183819
C        -0.13009544737535    9.64926962907537    7.23477790228180
H        -1.04930049801493    9.49212022302145    6.69335162987438
C         0.06406708114640   10.79483164238907    7.98275867671632
H        -0.71976539854871   11.53146257845250    7.99614246789376

