61
CSD_code = KEFNEP | q = 0 | S = 0 | Stoichiometry = C25H28I2N4OZn | MND = 4
Zn       14.00697255203090    9.85132628110310    1.78766277986997
I        15.24276789274511    8.38603261386181    0.16891987208184
I        11.66784820014593   10.82396797400544    1.30799138101732
N        14.91392089740108   11.66549958821619    2.34230078039253
N        14.78980957035852   12.00176428065992    3.63845835042209
N        13.59760645797879    9.28672304073636    3.77791871519799
N        13.93337816646062   10.10647567485727    4.78793092569143
O        16.28417072951487    9.42268842253936    3.42539992690628
C        14.44048358552746   14.03335469244641    5.07254879333482
H        13.55681300735830   13.64124224165399    5.57628762165985
H        14.28468860651340   15.09199818047205    4.88626252462780
H        15.30048750577067   13.92529844215495    5.73236890111551
C        14.65502290084578   13.34575322881210    3.77511535350227
C        14.69476177100400   13.87403636637564    2.50647233745038
H        14.60239759567904   14.90439588076310    2.23309325728652
C        14.85744948708527   12.78401418789990    1.63856013035557
C        14.92043920889828   12.79350211987014    0.15799658052601
H        15.40922791921316   11.89559068073451   -0.21412357564270
H        15.46204737366767   13.67035546148608   -0.18863415784924
H        13.91119042201087   12.83329271727719   -0.25457105674839
C        13.31542969161916   10.57885126873471    7.17357377768506
H        12.59183800044219   10.18393289192536    7.88097451500028
H        13.12408313932819   11.64492988807612    7.05004568212326
H        14.31427104799558   10.44730760678599    7.59172518918209
C        13.17548543908383    9.85335837292268    5.88626139237155
C        12.32345309284928    8.82887545126461    5.54439917535465
H        11.57749051818579    8.37506609419156    6.16313542908809
C        12.62168873132339    8.50591138665981    4.21093230233721
C        11.97484156961928    7.49102223605851    3.34635562335554
H        11.65686879162516    6.63667377331611    3.93905369086809
H        12.65669368415127    7.15614532952538    2.56639769752796
H        11.09364882084235    7.92210609055483    2.86885023063092
C        15.02004017303670   11.03740465160176    4.68381168014878
H        15.05908719967265   11.58786124128856    5.62749765958200
C        16.42648697886731   10.34780871366755    4.48600604713166
C        16.82099219231105    9.61908157242923    5.76973900190700
C        16.04818009593272    8.53786252170792    6.18905068441313
H        15.21049494545624    8.20676779671581    5.59660558155893
C        16.36364656567272    7.84242923213912    7.34173186416050
H        15.74397593626327    7.01321940948908    7.64821248571245
C        17.47314849696069    8.19938960960128    8.08787519549644
H        17.71869171833094    7.66127258287483    8.99062725394287
C        18.28235462823287    9.23058147446934    7.64662458955532
H        19.17412880492897    9.49296859962628    8.19565032378349
C        17.96689395574737    9.92800271981653    6.49247659228914
H        18.63654870100542   10.70248635350492    6.15344752943169
C        17.35718464787155   11.50002094736303    4.11183041951645
C        17.59960065540534   12.53140276961200    5.01541729610649
H        17.19265803267642   12.48295588196300    6.01663461037173
C        18.36438913919501   13.62344767509541    4.64885373668598
H        18.54474582625626   14.41271412411871    5.36370087045032
C        18.88844300198132   13.70869125261234    3.37007768497662
H        19.48093507178761   14.56425417744714    3.08395934722497
C        18.63903007310007   12.69623700924795    2.46195426887247
H        19.03148546370501   12.75692029077612    1.45837210403005
C        17.87495626105507   11.60143307114448    2.82770135824762
H        17.66491783171771   10.83506359390469    2.09899539708848
C        17.33741609628116    8.48388135935858    3.29649320538171
H        17.25711266079013    8.07405674602590    2.29225332565169
H        17.23832719059949    7.67310080037364    4.02451184152956
H        18.31475127797534    8.95619135613203    3.42282389793594

