46
CSD_code = KEKKUG | q = 0 | S = 0 | Stoichiometry = C17H24ClN2ORh | MND = 6
Rh        2.50633098265682    2.56384537922251    1.40423540807813
Cl        2.49419389545704    2.38003427769175    3.69692544117319
O         1.75307893439193    5.05232386859832    1.35798980010139
N         1.29431130822576    3.91498977643048    1.58216949109149
N        -3.78849786635691    2.92553094869430    3.60980148321423
C         2.95327485267020    2.97245457364365   -0.69062318512506
C         1.89812333714085    2.07579766337479   -0.60704555046302
C         4.49114272866185    1.63249746963619    1.29456994823263
C         3.56651544312091    0.62504617376614    1.19837188684524
C         3.20627473862276   -0.06968794178746   -0.09687739434260
C         2.01464279887073    0.58347864788920   -0.82670110365978
C         5.24232207722698    2.26092410059669    0.14394546528770
C         4.35961315235071    2.57683131676555   -1.07914909227479
C         0.00675840548005    3.75239354840270    2.05119576084446
C        -0.46558357704249    2.43241187336166    2.17346149619497
C        -1.70357518424265    2.14967848278758    2.67609818643150
C        -2.55849502956750    3.19020961689682    3.09754994650944
C        -2.08725084203265    4.50677432660738    2.95907980799629
C        -0.84171828256943    4.81265728106528    2.45286626868285
C        -0.41401555452332    6.23981651178454    2.37664081899943
C        -4.16793172874229    1.57546763383651    3.95217876823794
C        -4.71210390554428    3.99017749183907    3.91618405167301
H         2.71396064907736    4.02134036508841   -0.85455073884281
H         0.88971781749695    2.45859027487413   -0.77327199777898
H         4.93904313667903    1.82027593265497    2.27048745638840
H         3.31702526984203    0.07690244269898    2.10475547257933
H         2.95064616816050   -1.10882329587601    0.12048446478198
H         4.08461805190345   -0.08503501429420   -0.74354029914447
H         2.08691230224111    0.38456646279040   -1.90203193222736
H         1.08841294510294    0.11879825072977   -0.47819415160134
H         6.06610185837847    1.60103189815913   -0.15038218368412
H         5.68544535780629    3.19255435332890    0.50462309804924
H         4.81781019206659    3.39946885768900   -1.63168199046319
H         4.31637520930037    1.72017234688923   -1.75325889963015
H         0.19276376746406    1.62055937294623    1.86686021798245
H        -2.01793426713797    1.12206541882247    2.74240261257345
H        -2.70287710954929    5.32851568431618    3.28710829623658
H        -0.21433463042272    6.52442104338047    1.34449167982810
H         0.51726666255254    6.38171441325942    2.92323060834900
H        -1.17868270238610    6.89419179880681    2.78942454820767
H        -5.06529037557681    1.59594629011750    4.56567783255337
H        -4.37594281550613    0.97963420086271    3.05769070542486
H        -3.37819033903722    1.08536395783870    4.52504008316332
H        -4.79234136600388    4.68069557682491    3.07479908381932
H        -5.69830599086622    3.57029124517438    4.09949501369830
H        -4.40411047583837    4.55160510181833    4.80457331601470

