67
CSD_code = KEVBIZ | q = 0 | S = 0 | Stoichiometry = C32H24Cl2N4S4Zn | MND = 4
Zn        2.15040677832466    6.96705608100820    4.25685348575267
N         0.39935077924316    8.03915835115030    3.92485978603269
N         3.54819615368797    8.28606911555884    5.09758483075645
C        -0.35752636275119    8.01040540563437    2.78224883477038
C        -0.40182378063022    7.08234032531520    1.74831758494557
H         0.23550118655304    6.21359823935040    1.76245431996536
C        -1.27443557832261    7.33669676866325    0.71234845377597
H        -1.33436365823187    6.64177164323868   -0.11105297579079
C        -2.08709581613913    8.47343835148148    0.69618842203914
H        -2.75548251653501    8.62888880858214   -0.13718520677737
C        -2.05550829945268    9.40321345107031    1.71533329041243
H        -2.68059127464886   10.28257269860898    1.69188361739742
C        -1.17659672947491    9.15675993182262    2.75954397884250
N        -0.88674374717172    9.84979823616653    3.91292786060404
C        -1.48997354567999   11.09970170786562    4.30230717331753
H        -1.46594147356845   11.18756775338444    5.39213437837647
H        -2.53796898080458   11.07149219803796    3.97926548013459
C        -0.79829745774351   12.28311004337487    3.69928864379146
C         0.06684423589070    9.13973706187288    4.57210371526601
C         0.66341919082958    9.50869520526762    5.82872330846270
C         4.18144085092081    8.23692652227022    6.31659763597242
C         5.17181526871926    9.23967476735465    6.34814200560821
N         5.12896650061152    9.84580734354067    5.11400690480301
C         4.13580584355586    9.24083428690834    4.40983924973846
C         3.79977571750238    9.61960319408946    3.05481126586953
C         5.87072748641234   11.01283591035629    4.68906510589681
H         6.31583849153515   10.82657098831526    3.70756380255524
H         6.66940298891785   11.17751759468543    5.41625152873282
C         4.96746005376300   12.20080341870661    4.60646635998301
C         5.96025363612189    9.44763127919100    7.47010602952497
H         6.71137790392578   10.22201686932794    7.50466777526365
C         5.74354682617799    8.61419611837043    8.54811446086570
H         6.33843968276988    8.74231252122802    9.43985620109271
C         4.78140166398856    7.60202341480545    8.51130091460922
H         4.66247762770385    6.96507629078328    9.37449552538646
C         3.98531265659084    7.39434631375305    7.40514933690819
H         3.24781690285735    6.60897568393810    7.36167358616040
S        -0.45539354905856   12.34218734832254    2.00215580580003
C        -0.39146618392581   13.42032044936571    4.32449668228846
H        -0.51054587395390   13.58974805775266    5.37916121400758
C         0.19725342184783   14.35335167566195    3.44258267021185
H         0.57046427211700   15.31236728938792    3.75304671865460
S         1.24740751951813   11.12119751629703    6.12982512273797
C         0.93425883291475    8.68046184209387    6.88239023455283
H         0.66651641709646    7.63899539280089    6.89358184643061
C         1.83253538171879   10.65094785750865    7.67440242461882
H         2.32344706287614   11.38003140425463    8.28808009888279
C         1.59060542007836    9.34170328901383    7.93986875328119
H         1.87566403220608    8.85817921736376    8.85581150031030
S         4.30148475270373   12.89673071925857    6.04788913592737
C         4.49415342651188   12.82458991115020    3.49427014473673
H         4.77762069024801   12.54816685810105    2.49435679766265
C         3.39666765343106   14.02587240191668    5.12396467375198
H         2.77204596703100   14.73290124239121    5.63160499043734
C         3.59824292450320   13.87523146283728    3.79198624138637
H         3.12637878919486   14.48335254398097    3.04267891316651
S         2.24879188286900   10.28880041158854    2.68011762477957
C         4.58016057945107    9.52565441471235    1.93960146263596
H         5.56768393044525    9.10028255054013    1.94401009001815
C         2.66791842785753   10.42184689336487    1.02309466323396
H         1.94581053768900   10.81320599013796    0.33445555675140
C         3.92467773390729    9.97482221093740    0.77521836471286
H         4.37064952192147    9.95307513448158   -0.20238478688279
Cl        1.63039995494831    5.44948725163785    5.77048662389888
Cl        3.02087439864174    6.54263335604242    2.26831956587576
C         0.23553116958832   13.90599233729137    2.16340854601917
H         0.62203170016543   14.39843907473121    1.29328164905831

