54
CSD_code = KIZPIV | q = 0 | S = 0 | Stoichiometry = C21H22Br4ClMnN2O3 | MND = 6
Mn        1.64206801219906    4.94341915381355    8.53904747227286
Br        1.87271498509943    9.13049651217645   10.70147964725674
Br       -3.36482799842754   10.39734692674380    8.88396147084740
Br        8.72575176848234    4.29922922592063    6.40702020667637
Br        5.43039772241456    7.43061811932569    9.81982524845013
Cl        1.31715706782772    3.63121139686098   10.18374217265996
N        -0.23160365508734    4.74755554503224    7.97203118885126
N         2.34597907902624    3.44246232181941    7.45778128022269
O         1.17590951002421    6.53666678828020    9.43327002465563
O         3.41428853889864    5.44359313738170    8.91418000192207
C         0.19862106752459    7.33151774365829    9.29333842117286
C         0.25850737278864    8.65101291303234    9.83340725668343
C        -0.77239572213062    9.54404865190510    9.71786664481183
H        -0.69093211299028   10.53339607107876   10.14012753602555
C        -1.93345450922781    9.15259029092703    9.04195493803152
C        -2.05102858903553    7.90438867397953    8.48718976359588
H        -2.95463290676000    7.62218253642395    7.96762220971143
C        -0.99737162877723    6.97953873839582    8.58687795323364
C        -1.13752985955719    5.68194344477532    8.02985084861257
H        -2.13436014555559    5.45861106665354    7.64231597385504
C        -0.73310651655161    3.44572922145123    7.57246307342169
H        -1.75290879837753    3.54092982062219    7.17746403193945
H        -0.77200312132307    2.83822666773278    8.48664179220172
C         0.12223624896463    2.70162037680725    6.53757047946165
C         1.47714305900041    2.32166836378334    7.15061245317452
H         1.29403304362918    1.80316013242133    8.10105630765261
H         1.98561284235723    1.62715937796240    6.46949271424073
C         3.58315200295288    3.28545340785203    7.08843963077980
H         3.83380007525896    2.41471365560774    6.47782640781525
C         4.68828600019516    4.11471188290640    7.41753317323910
C         5.95040969705470    3.86209220549229    6.85600124384018
H         6.06748257282433    3.04139869299347    6.16398469282991
C         7.02439053483167    4.65035974423400    7.18246104102093
C         6.89833462606204    5.72298020686695    8.07095171180190
H         7.75001133525323    6.34077213664430    8.30986204663830
C         5.67542097406126    5.97564392791520    8.63226314219218
C         4.52327024161872    5.18401208130332    8.35450026323412
C        -0.60993775952794    1.40691303828279    6.17144820170058
H        -0.76173399973011    0.78956485848254    7.05275801928734
H        -1.58042293603577    1.62857789018226    5.73477161069766
H        -0.03567317010808    0.83605811022959    5.44625839463232
C         0.32169034232070    3.55299269408469    5.28288885391032
H        -0.63811275716067    3.84271986002436    4.86163051358459
H         0.88363914522436    4.45147221227899    5.53004312482034
H         0.87378384632273    2.99488336428372    4.53027566223603
O         1.99695728835438    6.43852007650619    6.77184002673994
H         1.63158217116823    6.45591638063316    5.87716445672041
C         2.68333836850482    7.67778901211203    6.97409452904966
H         3.63781161973282    7.64590137242505    6.43023338386005
H         2.88960013777044    7.73779782074719    8.04459596501069
C         1.85161767097402    8.86470517191074    6.51837366149225
H         2.37157878000784    9.78610667436517    6.76309387942350
H         1.68740036061799    8.83429053268950    5.44132760953553
H         0.88535807701347    8.86912976998003    7.02008764226462

