63
CSD_code = KOGVUA | q = 0 | S = 0 | Stoichiometry = C22H30I2N8Pd | MND = 4
Pd       -3.39191805416575    2.52808029630751    8.19254700092530
I        -5.20731919154010    3.84091753408588    9.46657194341065
I        -1.88689367371837    2.26973540442305   10.26800641427036
C        -2.22532300545488    3.41933729671967    5.44859691893329
H        -1.86083279167012    3.75027232194984    4.47088542315182
N        -1.63616263156932    2.14706453607876    5.79316925313035
N        -2.03434609969068    1.51485566749571    6.91421392390508
C        -1.45664026285987    0.32690272751120    6.93616355622831
C        -1.73481300203585   -0.65158664217478    8.01633188974671
H        -0.94255493167453   -0.63179517293819    8.76490963062829
H        -1.80086693475828   -1.65769636900481    7.60847862798743
H        -2.67814113285997   -0.39565439464289    8.51049645270614
C        -0.64099471855874    0.19872786107800    5.79854343694597
H        -0.03591699155637   -0.64513900502783    5.53958887678263
C        -0.78010630629049    1.36908408767510    5.08511835499168
C        -0.17435955575139    1.79982723480827    3.80248168880134
H        -0.90964711282667    1.76713928643763    2.99741892196999
H         0.64130225950173    1.12984839541368    3.54649176460651
H         0.20955504427357    2.81692510068016    3.87334833320881
C        -1.74485955060727    4.49745449662568    6.46678694078968
H        -1.74910966448055    4.10072100694304    7.50605109494635
N        -3.65308823186439    3.26613801020541    5.36817430743711
N        -4.35673774458449    2.74202573997466    6.38943255643233
C        -5.58188956253914    2.50252537018981    5.95918135864658
C        -6.60297923761913    1.84776222373251    6.81462800841561
H        -7.18294817868857    1.13742626896267    6.22899585982335
H        -7.28403189347308    2.58783819854212    7.23467039005823
H        -6.11352581349246    1.32361719280296    7.64255307173560
C        -5.67541422267439    2.90197549542576    4.61512668979133
H        -6.54476041429458    2.84353148160855    3.99360685604635
C        -4.43279829501452    3.37413023264232    4.26121119903221
C        -3.93838491154730    3.93641227673941    2.98418228015073
H        -3.47321336463681    4.90308582797794    3.17822570595012
H        -4.77255319504007    4.06525482534661    2.30098187201854
H        -3.20695231402667    3.27696337875790    2.51584891579127
N        -0.38318388673578    4.80973085112673    6.10788793579377
N        -0.10154958813222    5.09248707553323    4.82166918531149
C         1.18778504767864    5.36539254175103    4.77381322691957
C         1.86445472008628    5.72512094756741    3.50081432470264
H         1.13987027282049    5.74011133571588    2.69143459921918
H         2.64965754038662    5.00575249125210    3.27093213064036
H         2.32295751073318    6.70870769951966    3.58668963452256
C         1.75837773733665    5.23948442945330    6.05487272713055
H         2.78384099391292    5.38837185682015    6.32315589185624
C         0.72810725192620    4.87951951004472    6.89181742788690
C         0.74809166098132    4.54545423807140    8.33488324283215
H         1.76226603017314    4.64265653498571    8.71060618238158
H         0.42202270180491    3.51876879399616    8.50531742311735
H         0.10484731020579    5.20298568005790    8.91618275120000
N        -2.61564944321343    5.63352646466252    6.39660462149873
N        -3.16939395688966    5.97430614778688    5.21788542399999
C        -3.91770680016872    7.03362488166194    5.45413349921751
C        -4.72132290837552    7.68515716218305    4.38729779589644
H        -4.39362625766093    7.34442664351223    3.40900649872857
H        -4.61771240914864    8.76641940620509    4.44741979527552
H        -5.77544418813527    7.43769692668397    4.51155202072849
C        -3.83955633788136    7.39359775279366    6.81285901229675
H        -4.34354190417756    8.20351644411656    7.29770821212717
C        -2.99315384212968    6.48129982590760    7.39516372434455
C        -2.51150878737226    6.38303381292903    8.79334822360410
H        -1.51251757541938    6.81203447427761    8.88641489876458
H        -2.48286357320679    5.34842845412383    9.14396369831019
H        -3.18472163162258    6.93517942402294    9.44304637225977

