34
CSD_code = KOZCAF | q = 0 | S = 0 | Stoichiometry = C16H13CuIN3 | MND = 4
I         1.16117801227108    3.30533314502248    9.88042074788212
Cu        2.34861219277126    1.44968327276792   10.98534640863867
N         4.31535125698697    0.98168651707480   10.74802102077804
N         2.57228674294164    1.19231584515347   12.98986388609145
N         1.89769760715052   -0.52805360897812   10.82260826133336
C         4.70996638632481   -0.16827027254428   11.29114499876187
C         5.06364061182458    1.56057477669343    9.81797325243030
H         4.68334417120171    2.49086376384648    9.41941919148453
C         5.89592551685511   -0.78131783594349   10.91368247636399
H         6.19780566972258   -1.71255477282321   11.36921217715086
C         2.55495545466887   -1.34550848973269   11.64306235055235
C         6.68363089204151   -0.17822681506475    9.94566645819593
H         7.61257074046366   -0.63392328409018    9.63761734650117
C         3.79603117244324   -0.80147928267550   12.32000957361901
H         4.32535247744982   -1.62434045279342   12.80851343159219
C         0.95046507603943   -3.07678332319280   11.27657555391435
H         0.58590585924467   -4.07742653689526   11.45352293033985
C         6.25782699079064    1.01752721712873    9.38281850934470
H         6.84162620346747    1.51805099255202    8.62750453669447
C         3.40664503678708    0.22433276230580   13.36444698017303
C         0.78470265555845   -0.94440808035656   10.23259885930703
H         0.30141246690589   -0.22967449323659    9.58107280605183
C         2.11006193882154   -2.63534192448219   11.89441231708035
H         2.66104393714848   -3.28237301186519   12.56046772050828
C         0.27014542155059   -2.21198193495597   10.42968595308377
H        -0.63549148955128   -2.51675930618691    9.93089518691840
C         2.22838415632104    2.13577263748106   13.85698715269639
H         1.54952698026972    2.89117563889020   13.48627694523804
C         2.70058640952015    2.15737380035492   15.15576276005982
H         2.39714415769322    2.93860527147379   15.83359333827931
C         3.92497633039173    0.16856741491592   14.65010338486629
H         4.59709114635058   -0.62764067360451   14.93325108466840
C         3.56500171957768    1.14922969369798   15.56116828936257
H         3.95259609799518    1.12567135006267   16.56849411003755

