34
CSD_code = LAZCEU | q = 0 | S = 0 | Stoichiometry = C9H15FeIN6S2 | MND = 5
I         1.90015620326310    1.08630731437400    6.94478697087440
Fe        4.19330946679411    0.27968589710037    7.13901689498237
S         4.70866334125011   -1.47111947235380   11.16760764138429
S         5.09077569317982   -1.62799075973314    3.36891574538115
N         3.92391464236461   -0.99426474015055    8.63731236485543
N         5.29861220425902    0.55856086253739    9.57474505940311
N         5.16405494243400    1.14463057465593    8.39037148313575
N         4.96670205460281    1.35710037116501    5.75953663538305
N         5.11664624608645    0.73846884366095    4.57564487759274
N         4.71824372078055   -1.01620761712612    5.97047987222622
C         4.63150139137669   -0.58156394724704    9.65560550541840
C         5.71222206885774    3.16403902884014    9.63596077728385
C         5.45701209164217    2.46567308460796    8.33409008968937
C         5.53057353400024    3.15927879257370    7.14291303689029
C         5.39153471474209    2.60052223483222    5.86496271577576
C         5.81830663016051    3.35384963966834    4.64433327452555
C         4.96271207488655   -0.55294059989115    4.74216081788448
C         5.76769538473739   -0.37889945011259   12.15264962002411
C         5.28516853928595   -0.41822815773042    2.03420428781211
H         3.37655502556915   -1.83067767624250    8.79380136422437
H         4.65859791087337   -2.02974935148637    6.04398916050590
H         5.93493426845553    4.21438297661108    9.47902714545992
H         6.54416323484894    2.68050555773204   10.14654282883050
H         4.83855293113159    3.07063861571465   10.28003713673804
H         5.78890692143534    4.20541208311357    7.19656751785557
H         5.90349290065165    4.41511207738499    4.85572607201568
H         5.09801323635203    3.18843224679342    3.84613946523800
H         6.78189502127963    2.98025348389650    4.29877787676120
H         5.90402745413550   -0.86664355312534   13.11243373294145
H         5.27338844159610    0.57874712513423   12.27551719672740
H         6.71776352717736   -0.25491041970715   11.64448078245664
H         5.35893375815752   -0.98497837559695    1.11179904341278
H         6.18696320746086    0.15859481095823    2.20838743635776
H         4.41590721617089    0.23057849914835    2.01977556995208

