27
CSD_code = LEMQOK | q = 0 | S = 0 | Stoichiometry = C10H11Cl2N3Pd | MND = 4
Pd        5.13146932417661    8.30166712759315    0.65389411161381
Cl        5.53365145203792   10.18193676319324    1.75954245746240
Cl        5.10117570599194    9.41788599492700   -1.29889795287309
N         4.74658046488619    7.25366076073362    3.57740371685422
N         5.89881873900350    6.02428287532438    2.24542432581286
N         4.81861440336422    6.56463405699114   -0.36909780637928
C         5.23015349680867    7.19606035451551    2.32816341522819
C         5.10525610439674    6.12970130422225    4.27323732943226
H         4.82621984054142    5.97473364520936    5.29509574911485
C         5.82890710866224    5.34986994541223    3.43402437568096
H         6.29546504861697    4.39918868735779    3.59101539805403
C         6.54618346951046    5.59549808945159    1.02691386233330
H         7.05804121738467    4.64765859686371    1.20158090996789
H         7.28428743836634    6.36431730463698    0.73311095497037
C         5.52905848915973    5.46572589636492   -0.08723326359934
C         5.34426909476941    4.27867630474663   -0.77638715993865
H         5.93394152568317    3.41018063005595   -0.52643617024059
C         4.40515100775546    4.22894768741573   -1.79684854111410
H         4.25129922573648    3.31823110726733   -2.35445049495549
C         3.67481215275545    5.37213164358302   -2.08017872091530
H         2.93685372544709    5.38052134178860   -2.86569905480422
C         3.90835304421742    6.51912302044020   -1.34057521869506
H         3.37585016104701    7.44237146264236   -1.53893918482675
C         3.95365869989521    8.32874886843631    4.11099631194355
H         3.96606927020008    9.15113423838522    3.39012839526841
H         4.37927778213708    8.67444790609316    5.05262315182311
H         2.92788200745014    7.99626438635225    4.28098910278095

