33
CSD_code = LEPXAI | q = 0 | S = 0 | Stoichiometry = C10H18I2N2Zn | MND = 4
I        10.32767681234061    2.97705263639271    6.95320393525558
Zn        8.02580448541463    3.42869137603441    7.90120913661539
N         7.71538666823147    6.25977865463639    9.16565217231054
C         8.09923854662970    5.17160064802887    9.13314406317546
C         7.17005332074013    7.55588562248096    9.13899243883104
C         7.35545981532098    8.09605833765882    7.71804718612156
H         8.41077178476226    8.13298202144466    7.45477868595020
H         6.94402558231955    9.09945492624184    7.65456217919197
H         6.83705006187868    7.46282285447405    7.00093360833011
C         5.68410322320568    7.43331362949009    9.48741086422570
H         5.17850608251310    6.78107714579406    8.77826087180200
H         5.22099646686468    8.41513075555020    9.44810886417281
H         5.55622738911962    7.02480061322773   10.48760724746872
C         7.91753904085331    8.41166871412408   10.16345810739056
H         7.80830999019244    7.99544626524732   11.16287785567460
H         7.51098186202841    9.41912313065155   10.15930825549216
H         8.97718296354794    8.46186762699594    9.92138639929419
I         5.71984438541792    3.87405578841521    6.95977971559262
N         8.33222492472511    0.59932559330022    9.17003693669026
C         7.95378562093119    1.68947539940893    9.13879854844099
C         8.86992694074755   -0.69991217660542    9.14002968304661
C         8.67804227505802   -1.23628199267877    7.71846639027296
H         7.62192435508070   -1.26621935026600    7.45753255186577
H         9.08318755067867   -2.24203855409025    7.65205099006045
H         9.19867152030081   -0.60478889250947    7.00141677647680
C        10.35733268429184   -0.58684133226083    9.48534040546599
H        10.86535174697174    0.06331509941905    8.77600885443363
H        10.81428083467403   -1.57144429023939    9.44359339802099
H        10.48994207002102   -0.18063119357627   10.48586467634498
C         8.11969075587702   -1.55314254463500   10.16461685875879
H         8.23369224428217   -1.13950775990616   11.16458139821565
H         8.52027821754015   -2.56297329064143   10.15761265417876
H         7.05920977743589   -1.59664546159612    9.92492829081803

