43
CSD_code = LEQPII | q = 0 | S = 0 | Stoichiometry = C18H15ClHgI2N4O2 | MND = 4
C        -0.42309972699506   18.87429728515632    4.70951160899020
H        -1.14389174572875   19.53487005975993    4.24903726706218
C        -1.43449600493990   22.38753249776218    6.87088846325956
C        -0.20529957198287   18.94387754801243    6.07891582091426
C         0.23918897497655   17.91124260748398    3.94898034483221
C        -0.88762646637635   19.97138459785580    6.93212478113582
C        -1.27565832034005   23.56025902010997    6.13218846350311
H        -0.75733556046588   23.53449106884529    5.18367216405618
C        -2.11686244261101   22.47465978609134    8.08819038693912
H        -2.26871929463662   21.60081759827118    8.70286581270834
C        -1.78695954795044   24.74430320029645    6.62804507477658
H        -1.67595816439195   25.66740250202789    6.07983417742662
C         0.04954742917474   19.31986208935242    0.53707221465996
C        -2.44564362818520   24.71564235623003    7.84876049897756
H        -2.86418345775426   25.61301495373368    8.28393585622927
C         0.09512082114047   17.80950321952666    2.47915217508390
C         1.08844057856542   16.99865146173256    4.57772108450184
H         1.58610657751736   16.25391290839431    3.97427392483209
C         0.14997765076494   20.66447510077187    0.15091883064643
H         0.08116453299007   21.45470987574640    0.88565662268417
C         0.16194557379117   18.34605099897860   -0.47256417481014
H         0.09601198086104   17.30291365530961   -0.20607953808869
C         0.64541161384459   18.02973175361145    6.69414453982268
H         0.79601840101610   18.09810802040888    7.76046985773818
C         1.28805565212980   17.06027213574632    5.94425026870764
H         1.95153522168377   16.35817887623926    6.42471391108061
C         0.50992413631083   20.07985989251965   -2.09068186721664
H         0.71144468435934   20.43317021282725   -3.08824681458721
C         0.39783991534977   18.73928612026759   -1.77736353851159
H         0.50673033263618   17.99989990231204   -2.55353243581924
Cl        0.64929854076107   21.67518929955158    3.36549399051778
Hg        2.97795674873891   20.75463775202038    3.51368776199193
I         3.57155027759673   20.49919418222863    0.93021720437539
I         3.64806955880189   20.33564179912166    6.00327274100871
N        -2.60351807825181   23.60823626339883    8.55111395660519
N        -0.91542877714457   21.20435802578577    6.35248197360880
H        -0.43840619596431   21.31221707499207    5.46258066217313
N        -0.10371862589161   19.04439775693163    1.86087862874651
H        -0.09512464953492   19.87021129308426    2.47062451278488
N         0.37001594815477   20.98921896157063   -1.11971346148384
H         0.48615395272608   21.97267375577812   -1.34702511616641
O        -1.34535847834620   19.69825809305662    8.01992746698047
O         0.19007963352299   16.77668443702679    1.85930389734282

