48
CSD_code = LEXHOM | q = 0 | S = 0 | Stoichiometry = C12H28Cl3O2Si2Ta | MND = 7
Ta       10.58612492163231    0.35284121415714    7.38514626707215
Cl       10.70316627570251    1.54039426604920    9.39645000697626
Cl        8.91084328331999    1.69428470380056    6.58162798173385
Cl       11.26853529945121   -1.65811829494892    8.24632468571617
Si       14.02017969508846    2.08136051903676    6.96356735020365
Si       11.96201490513396    0.34603442922415    3.77124903927175
O         9.17381934256883   -1.42964241379214    5.89513561011119
O         8.38385720691104   -0.67825718401893    8.64359762056116
C        12.56744653621628    2.01281026180629    3.05934685608791
C        13.70397351106051    3.91690919934160    6.53876249365809
C         7.86651631995364   -1.79702942537890    7.94886003630153
C        12.45269061074928    1.11786387220546    6.58413761432576
C         7.87494538520621   -1.48807942949566    6.44993151511761
C        15.45975746686893    1.36992156953440    5.92418432244293
C        14.39323695844774    1.86098711429435    8.82090004030163
C        13.20284633604226   -1.05179166256002    3.36067672360762
C        10.23359474200019   -0.04353358301830    3.05223596861562
C        11.80537909011134    0.51030464035063    5.63577258187364
C         8.40768160589449   -0.86838225564303   10.04401095207175
C         9.73339031400714   -2.68572090122416    5.56715054010005
H        13.53749429989488    2.29002571877100    3.45796948916473
H        12.65267861439347    1.96834403640761    1.97761639826045
H        11.87192178671329    2.80948285390620    3.30490875975674
H        14.56309873889207    4.53213527625833    6.78841644367785
H        13.49373626051280    4.05330705380065    5.48268176034877
H        12.85150079656933    4.29558394047540    7.09449541503188
H        15.60078761637316    0.31202295817095    6.12187527926964
H        15.28401814029411    1.48413403775509    4.85994728285051
H        16.38986162823370    1.87662278704324    6.16158984044270
H        14.64860098082100    0.83007332493484    9.05027835229357
H        15.21716592365424    2.48666886363311    9.15117639709830
H        13.51995471173119    2.11720249616773    9.41350448288387
H        12.93244417628420   -1.98758534694573    3.84112078719330
H        13.24419356257385   -1.23029481837616    2.29069373794566
H        14.20367267313947   -0.79490739903149    3.69155944002741
H         9.46189552871831    0.36256271039953    3.70023416731641
H        10.10445360998076    0.39264679240743    2.06626564526744
H        10.05757149215891   -1.11059648352763    2.96163744600631
H         9.04448530093794   -1.71912315583726   10.31198338475287
H         8.82203706654850    0.04264030565251   10.47257119159700
H         7.39487440761927   -1.03290518283913   10.42675376713992
H         9.88427246393242   -3.31237364329237    6.45029209692230
H         9.09489847829413   -3.21109110847781    4.84829645710905
H        10.70099696276633   -2.47188180137428    5.11859167642366
H         8.47795978989771   -2.68489841739137    8.16758010988486
H         6.83385043246194   -1.98798105127255    8.27474407672220
H         7.45735182922903   -0.48804899376148    6.30321865676803
H         7.26882292100519   -2.22902239337515    5.91482925164637

