68
CSD_code = LIHRAV | q = 0 | S = 0 | Stoichiometry = C33H24ClN6O3Re | MND = 6
Re        0.05020971064951    2.98402179786228    1.65159767997171
Cl        1.95620195229650    4.40898566300684    1.88876570711067
O         1.73497846751335    1.73502433024239   -0.61671026796760
O         1.58060536750417    1.22485409312066    3.67833338498214
O        -2.53224848308956    1.30905138105401    1.36233742512025
N        -0.64426715240806    4.65496728461334    0.48246098270091
N        -0.68580148403159    7.22501786057402   -0.65519291660808
N        -0.71668793187621    9.41581099770854    0.97106919982696
N        -0.83965561354976    9.08889624816651    3.74904465114230
N        -0.88574555366620    6.58042828756803    4.82205605897904
N        -0.73735964097259    4.34388851391231    3.12577369105982
C         1.04688761135785    2.12921166788558    0.20657711594236
C         0.94989728904472    1.80716227078903    2.92352386217776
C        -1.56284319968854    1.92115456480636    1.46888547181946
C        -0.68095635094348    5.75985995701773    1.22722578216748
C        -0.70726187079552    4.81481687803095   -0.85847780461132
C        -0.78653616845385    3.71303270668320   -1.72825687033402
C        -0.79995491092654    3.87332361336513   -3.08990443383865
C        -0.73836907928029    5.17937492025364   -3.65156515734056
C        -0.70082915858285    6.26894697907575   -2.82285496523403
C        -0.69951433732883    6.12871768690727   -1.42189196749769
C        -0.70884877981104    7.05846312405648    0.64672710105073
C        -0.73628157345128    8.21990742906974    1.52028865090869
C        -0.74533155912262   10.47751617418829    1.78599289247578
C        -0.71416329132255   11.78057862028428    1.25218403194782
C        -0.74977120993335   12.87871466576412    2.06937758119065
C        -0.82210555782716   12.71231660169415    3.48353751499655
C        -0.85242204322689   11.45448087552013    4.02388836074763
C        -0.81270193490024   10.31078836939408    3.20272477619116
C        -0.79456149725852    8.05301691881674    2.93834612447697
C        -0.81619261855407    6.72046368213964    3.51866140926560
C        -0.94045127874043    5.33633791167851    5.31106269618537
C        -1.03853983406053    5.14793645180210    6.70293027797104
C        -1.12270556449241    3.89622690950762    7.25197670034631
C        -1.13480075307300    2.75651033335232    6.39996013441685
C        -1.02583174798913    2.91614233310733    5.04253085577060
C        -0.89607530269030    4.18890907300054    4.45941916346619
C        -0.73255651656448    5.59162523955724    2.65667611718783
C        -0.87630501340882    2.67775786031926   -3.98248607972041
C        -0.72786349486400    5.35389873295166   -5.13614236724441
C        -0.71363252682058   14.25519563272499    1.48483498074106
C        -0.86332830244816   13.91571282361005    4.37114740520766
C        -1.21418569696933    3.72163993326351    8.73377163634218
C        -1.26220039338279    1.38721688470108    6.98365866103813
H        -0.84918871889414    2.72354550932685   -1.29348310312793
H        -0.67550117562275    7.27400474346162   -3.21422511994557
H        -0.65933133487206   11.87978091154394    0.17888752383770
H        -0.90414783662249   11.30197737133673    5.09106368214158
H        -1.04897179290418    6.03464007993961    7.31738751973409
H        -1.04945199335338    2.05487940730016    4.38700640080142
H        -0.93376482581248    1.76485657199034   -3.39645132566391
H        -1.75108421947894    2.73615750219834   -4.62892335910419
H         0.00410186809845    2.62526923711926   -4.62172101962281
H        -0.67127371005423    6.40675307514270   -5.39783675396840
H         0.12623040594208    4.83901029072009   -5.57393957648918
H        -1.62979344737947    4.93219162736729   -5.57813829818164
H        -0.65424748298937   14.20913325879871    0.40095592433229
H        -1.60778841369291   14.81277392546396    1.76122709079199
H         0.14837808470031   14.80710244281197    1.85756353842074
H        -0.92283506362002   13.61939680348135    5.41481687954346
H         0.02948071833523   14.52442667992161    4.23256302217094
H        -1.72677686204143   14.53677110445742    4.13533508599814
H        -1.18311709827879    4.68460116295753    9.23578051675434
H        -2.14097554983771    3.21682619911731    9.00391788892671
H        -0.38801348550494    3.11178351230063    9.09686723528355
H        -1.27907788177430    0.63600924311337    6.19908763527829
H        -0.42319862461003    1.17835683948102    7.64627311534190
H        -2.17584453161250    1.30314821753481    7.57072024218348

