39
CSD_code = LIJBUC | q = 0 | S = 0 | Stoichiometry = C11H23ClNOPPd | MND = 4
Pd        5.29417699389034    2.24534064678731    4.00662544844629
Cl        6.54943934564854    1.57258476301990    2.28764344935782
P         4.37758182074765    2.84309801706815    5.96395601865443
O         6.46012530842271   -0.24284006664985    7.32831901152749
N         6.11165381026403    0.58801385071663    5.29193518995449
C         7.21853431139249   -0.32424479051363    5.10194562034679
H         8.07531656774849    0.22529982597610    4.70254917127647
H         6.93794644531553   -1.08890844570767    4.37348752829008
C         7.45335367559818   -0.88912500582704    6.52323015335914
H         7.29800550294016   -1.96847632626688    6.58706068688170
H         8.43767387382192   -0.64045585244681    6.92744219218454
C         5.76320899870043    0.57223278180795    6.51257828840355
C         4.65164541804357    1.37615818902521    7.08585138676270
H         4.87914330747562    1.65253644831515    8.11889963098904
H         3.74585558107599    0.76215092118846    7.07995999566162
C         2.61286921800541    3.30939710296836    6.30724078726746
H         2.48495986375887    4.28834636339803    5.82901616587184
C         1.73836820108267    2.30295998462263    5.55973979823465
H         1.71074547469942    1.34608760531608    6.07864167754301
H         2.14083979430964    2.13919103121143    4.55471964181241
H         0.71695384089607    2.66676955176823    5.47047046221461
C         2.24757801127058    3.42102138984045    7.78220321108240
H         1.21088078354243    3.73906981353856    7.88010628068270
H         2.87354864405874    4.15288413732083    8.28752865552918
H         2.35306218558414    2.46377379898737    8.28757084868309
C         5.44766625013592    4.12574377489241    6.77986418856360
H         5.24178371644477    4.18418283473640    7.85571169453713
C         6.89660142679011    3.69907105105682    6.54312093851743
H         7.04780795605102    3.49725380597620    5.46761267280460
H         7.14576805065128    2.80119131839174    7.10793957195500
H         7.58288504701313    4.48947532541397    6.84296282756418
C         5.18955173348530    5.47292012772921    6.11203519488102
H         5.88736577208106    6.22162969536354    6.48280764294812
H         4.17875953169051    5.82668212727363    6.30368826274035
H         5.33091004645650    5.37043576480413    5.03427021951940
C         4.47457411730423    3.66586219211850    2.78330862028768
H         3.98703936818417    3.12088665781355    1.96433800469461
H         5.27442906598156    4.28433790885697    2.36055802019128
H         3.73749093943701    4.30606168011000    3.28106083978012

