44
CSD_code = LISYAP | q = 0 | S = 0 | Stoichiometry = C21H16I2N4Zn | MND = 4
I         5.42782725764713    5.84986535477124    6.43410123206011
Zn        4.05313045520183    3.85420215219717    7.17325632080358
N         1.45980494806952    5.15662813477877    6.11501180497612
N         2.06531972184727    4.66497658638972    7.20025223498972
C         1.18980652542013    5.64425001832434    3.73164199925310
N         2.53378613170128    3.74219634326743    4.48518094875971
C        -0.49616384348493    3.86475081467884    4.20784494416206
H         0.11779750254328    3.42706418695209    4.97879089521104
C         2.34332030220252    3.05355350011490    3.34311711330370
H         1.75475195702215    3.43521371495994    2.53563169095515
C         3.13979803323855    8.55038189289407    2.41238786545314
H         4.08183246852570    9.05018496032510    2.57694414743187
C         0.32168009822250    5.79156682508533    6.45518312879657
H        -0.29588699696518    6.28450339371521    5.73421282585480
C         3.63565667732812    1.92625808522467    4.71395151489152
H         4.25842241362884    1.19999072526398    5.19947697430850
C        -0.51543568269563    6.64480995555284    1.75200768429281
H        -1.17325141544433    7.03340090424302    0.98761702962047
C        -0.91325490589852    5.53031480677812    2.48108172837094
C         2.81747885955714    7.46435780306756    3.16902357460163
H         3.53474123472882    7.15143749097253    3.91042476618231
N         3.33895775914284    3.06643976892534    5.31102581969440
C        -0.04662068528113    5.01053366231517    3.49321956015890
C         0.70327644732297    7.27245643425854    1.97724129002040
C         1.58790570501316    6.77209998485440    2.99013402750812
C        -2.16178060292368    4.90359457706400    2.23488069442484
H        -2.79469450472423    5.31995339548128    1.46519445679881
C         2.26521476369228    9.03284509139954    1.41899541961873
H         2.54715597759065    9.89484539484041    0.83426118134458
C         1.07730579820396    8.40641357845165    1.21065181241786
H         0.38823588629882    8.75615742973335    0.45601038864684
C         1.29520468029085    4.95163815398654    8.23475345992578
H         1.56628472276486    4.63386811259253    9.22300216105025
C         2.09614686448784    5.09213524943482    4.80715598377623
H         3.01002148346572    5.69700402531822    4.88458571078982
C        -2.55034656305288    3.81152221766511    2.94550196073541
H        -3.50081531414099    3.33701128737333    2.75609308137471
C        -1.70181658372132    3.28992518423652    3.94188652905193
H        -2.01571843004429    2.42113776642682    4.50052692546579
C         3.03177722492109    1.86917373867042    3.45804035985526
H         3.09432003045896    1.07973463725466    2.73935942472914
C         0.17575744199250    5.67085778009960    7.81697897312005
H        -0.61902878227582    6.05084822093682    8.42322599745459
I         4.08529493812139    1.95729665912193    8.78963435776090

