64
CSD_code = LIXGOQ | q = 0 | S = 0 | Stoichiometry = C30H25Cl2N3O2PRe | MND = 6
Re       -4.39175745255884   10.71767143087688    7.20733151230551
N        -6.00690021395295   11.83923668728937    6.40810202581919
N        -3.32106255715517   12.03680614554632    7.63603409953218
N        -8.27224422488795   12.96957593203253    5.28294114077216
O        -5.70153555505624    9.32165809788967    6.69151291134199
O        -7.70169842630694    8.79951441643926    5.85001798188552
Cl       -5.46343173877727   10.68303824390298    9.34133147263196
Cl       -3.62434617354625   10.55022367449938    4.97013721256206
P        -2.94449053196716    8.96629189469744    8.08400479380003
C        -1.55168020067620    9.69950998146474    8.99819142256390
C        -1.87053998322492   10.65116399009574    9.96686314938055
H        -2.91094782866526   10.88175305613166   10.15562427616965
C        -0.86515558689580   11.28567083080936   10.67021578652429
H        -1.11528102468427   12.02473850703214   11.41626061604994
C         0.46212045281556   10.97855312404459   10.41224938652283
H         1.24850719541681   11.48209297127545   10.95448404599209
C         0.77974880801029   10.02184563544657    9.46360657310970
H         1.81293832089962    9.77371040434735    9.27030732184322
C        -0.22234639305553    9.37808672214601    8.75654677936732
H         0.03042626712617    8.62946012313810    8.01986078399461
C        -2.20950650060117    7.89750210666913    6.82200324288664
C        -1.39549647791385    8.50063516024464    5.86341661864873
H        -1.21885456230009    9.56592399558649    5.91523432734498
C        -0.84783023613940    7.74090170496150    4.84829813892003
H        -0.22466405450201    8.21053522570294    4.10223841147393
C        -1.11273602452213    6.38154769808781    4.77904046731834
H        -0.69249937436315    5.79024203939694    3.97901334128022
C        -1.92312608997526    5.78188152109719    5.72830680748964
H        -2.13373813734602    4.72413264424113    5.67023284357106
C        -2.47555705742554    6.53519355676233    6.74998499057730
H        -3.11322770463652    6.06626925019843    7.48622754081655
C        -3.74237421071863    7.85097895603310    9.26929976490551
C        -3.14659440047867    7.54499767305186   10.48836255173621
H        -2.19631985617662    7.98619896356735   10.75242575643819
C        -3.77939188915275    6.68038852501176   11.36357486275052
H        -3.31709035295977    6.44757849104132   12.31161403520598
C        -5.00194900395008    6.12032052541889   11.03177184523779
H        -5.49452824789832    5.45187800033645   11.72237145326086
C        -5.59622052650655    6.42167886418218    9.81684853384080
H        -6.55164574609706    5.99065131463513    9.55713619120280
C        -4.96999015378361    7.28264477776980    8.93551078174334
H        -5.43861482166361    7.52757613903719    7.99238540642614
C        -6.83337684623197    9.57909209053374    6.17356778864933
C        -7.02691228107160   11.08777175340097    5.98807208987652
C        -8.15969911259932   11.66163680863558    5.42580321730197
H        -8.97532739236259   11.03757943466635    5.09045657853543
C        -7.25583791564123   13.70909267032795    5.69962971491874
H        -7.35546689500416   14.77787028980600    5.57733184578214
C        -6.11496439240533   13.15890236995474    6.26501005912004
H        -5.28373007893973   13.76282495622931    6.60102851254268
C        -2.49290764630561   12.99764003248776    8.03544847126402
C        -1.20560423134031   13.10909941520347    7.47463437332198
H        -0.93277554336795   12.42348084294839    6.68796257747715
C        -0.33217422919687   14.06355326987972    7.94125801413294
H         0.65569419649420   14.13487755237531    7.51021006193031
C        -0.69837468988977   14.94191360412628    8.95942346193388
C        -1.97839625810249   14.83875253916915    9.50467304601113
H        -2.27233509533925   15.51655677676550   10.29300794246580
C        -2.86751128796232   13.88880087377677    9.06159285470427
H        -3.85370642714997   13.78950799997517    9.48852503560916
C         0.24723543040220   15.99069699970282    9.44864403348371
H         0.18066378980543   16.09759314182291   10.52908930317876
H        -0.00666159768408   16.95386356519095    9.00487169405604
H         1.27170078015315   15.75203401090141    9.17623811845167

