70
CSD_code = LOFRIH | q = 0 | S = 0 | Stoichiometry = C26H35BClN6Ta | MND = 7
Ta       10.44057439765148    2.22806304763027    2.02599363617216
Cl       12.35393041322164    2.68227314462889    0.86086428989960
N        11.69385182364017    0.65803558897461    3.25158580949162
N        11.66288328601359    0.67402417671307    4.59785689192499
N         8.94030141576255    1.83047805826989    3.70120896257260
N         9.33870018190797    1.58747232914744    4.96441532071411
N        11.37957713019678    3.61644946280635    3.95809087038011
N        11.32751099773841    3.08470209892874    5.18884574544767
C         9.50406587323376    0.36984038674175    0.98407801466731
C         9.18004205286275   -0.83339115948487    1.86502801040634
C         8.83493940392104    3.46293032240740   -0.86395615622348
C         9.33464055968686    3.36073910056107    0.53000227071639
C         9.29797543813609    4.03071473441656    1.64009102063181
C         8.85091246139238    5.28735087146323    2.18159965054851
C         8.43286263015439    5.38325017001033    3.51207890146015
C         8.03794743127999    6.59673521761390    4.03868208747886
C         8.06074233329861    7.73980490370078    3.25454033824099
C         8.48017608428306    7.65993465894305    1.93594820485897
C         8.86984959073484    6.44791418282110    1.40041932446196
C        12.57771762841823   -0.26475655767914    2.87186749699811
C        13.13046406265684   -0.85936779706812    4.00730344236028
C        12.52675529066109   -0.23730048265451    5.08454786160535
C        12.88760712410670   -0.59906410101619    1.45698967168373
C        12.75977992423910   -0.50133629486490    6.52875840692638
C         7.60467945211814    1.79091897776059    3.68004743908235
C         7.13705575677577    1.51265523575168    4.96301300527642
C         8.26762735304406    1.39274010343835    5.75342197283651
C         6.77877085471507    2.01533604527776    2.46543362077123
C         8.32354438214434    1.10544341210202    7.21046411850022
C        11.89745213089365    4.83357327820683    4.05310991137366
C        12.18996191959996    5.10037052639336    5.39595022427034
C        11.81382016209277    3.96529700236619    6.08819378187827
C        12.11568219175112    5.72093388507188    2.88079482939622
C        11.90539203532120    3.70627579494180    7.54961433255931
B        10.81044791050789    1.65817462212620    5.41393505345414
H        10.87999499951337    1.38161954559479    6.55658667977600
H        10.23040023616124    0.05333826344175    0.23116155717359
H         8.59760820397574    0.62043321960836    0.42778897289524
H         8.79872571193668   -1.66462569775899    1.26612236512971
H        10.05958881810267   -1.18866021014103    2.39858819376457
H         8.41828474183797   -0.58579326685019    2.60416897457515
H         8.07091959745586    4.23643976084147   -0.95830165140411
H         9.66964278715876    3.70837608697825   -1.52206639246644
H         8.42339204001030    2.51033117683527   -1.19580676425051
H         8.42182530680462    4.49270900139382    4.12432337156640
H         7.71459042178349    6.65715004937107    5.06838162606987
H         7.75537594991799    8.68923014224208    3.66958149101581
H         8.50180399360016    8.55029493530898    1.32331238804056
H         9.20734030998376    6.38575542428679    0.37621099507248
H        13.87039880062023   -1.63326973266716    4.03757761115302
H        13.83642453448502   -1.12833896340544    1.40925521130117
H        12.94750016384192    0.30409878779909    0.85441739421749
H        12.11383830298559   -1.24045006570975    1.03682462539419
H        13.48664101797405   -1.30260584891251    6.63330998156881
H        13.14321033317928    0.38692584307449    7.02729269421384
H        11.83651351336990   -0.79699519017008    7.02347355392065
H         6.11705025916526    1.41493131566956    5.27446715147875
H         5.75225815742120    2.22111324901256    2.75870667373701
H         7.17020407205270    2.85036207932450    1.88883397008392
H         6.78783251879743    1.13171983136139    1.83001157063184
H         7.31456866667564    0.95572439484997    7.58539917514616
H         8.77886455450767    1.93356073999315    7.75013115961021
H         8.90958397622740    0.21006090526658    7.40661533412928
H        12.61733539224745    5.99538952931873    5.80070785490886
H        13.13639354503424    6.10060700938044    2.88650441103842
H        11.94191160547906    5.17599068102337    1.95587617341252
H        11.43530086365363    6.57124391937559    2.92091913338588
H        12.31943081000695    4.58046892350959    8.04490230126557
H        12.54796204852144    2.85125018521532    7.75281517072793
H        10.92264206135774    3.49759902908907    7.96878867889434

