58
CSD_code = LOGLAW | q = 0 | S = 0 | Stoichiometry = C27H22ClN5O2Ru | MND = 6
Ru        2.42776780809868    3.19932049658390    1.98415961905494
Cl        0.87238850954972    1.83526964374152    3.12067166215616
O         5.68381755057647    2.76733121021018    6.77952603946408
O         4.28935879022301    3.98939601605256    8.02842320022161
N         3.89731278985176    1.82792503681645    2.51543242205781
N         2.95389531926238    3.78899239355269    3.68631974002495
N         1.11408255504748    4.78652918503043    2.32669962407696
C         4.31130349832775    0.78072095810629    1.81263451605468
H         3.86270395593839    0.65403992072129    0.83246387491312
C         5.25304275366156   -0.11848882720591    2.27505147837147
H         5.54969810744737   -0.95390947324339    1.66145969828189
C         5.79637235057770    0.08172589846869    3.53986301745018
H         6.53418952455548   -0.60075934080510    3.93374728596555
C         5.37776535977411    1.16261935402117    4.28495090943116
H         5.77175822020850    1.36504337065324    5.26752710636471
C         4.41553328357981    2.03342332514670    3.76546180151281
C         3.85485977253172    3.17499662001402    4.44639363913309
C         3.84174035822641    3.82353438208847    5.72832221009998
C         2.86046322380020    4.83536875780994    5.65537506778859
C         2.31775499916670    4.76981420193561    4.35270203914377
C         1.25433553621826    5.33905541962452    3.57073730102859
C         0.37958335044106    6.34418530950048    3.99894867802121
H         0.49735855700245    6.75428635492543    4.98774176533515
C        -0.62592299122621    6.78199031663685    3.16517183185594
H        -1.30986791133435    7.55233318611092    3.48847964903221
C        -0.75118661254642    6.21097547622389    1.90326068419696
H        -1.52658111006588    6.52137540301818    1.22201562158800
C         0.13787596523710    5.21740873632234    1.53831213185464
H         0.06062134673844    4.74062365815803    0.56658033313375
C         4.69248431133709    3.46718272128734    6.84728975497517
C         5.08414357895990    3.64596527270312    9.14864668039747
H         6.10826615863018    4.00350879466279    9.01621090826511
H         5.10853283193390    2.56186723187431    9.28044512556962
H         4.62038626047493    4.12354889687332   10.00846614777047
C         2.46370074891720    5.81920166342407    6.70025346762851
H         2.44024335024888    6.82611349845549    6.28253469283110
H         3.15843119571020    5.79668707558887    7.53208237215334
H         1.46932366168632    5.58149435535450    7.07972556514306
N         1.89595395914908    2.60424353596694    0.17682538357524
N         3.66656185356036    4.27486709320866    0.90777840198839
C         0.94472515172584    1.70427323917082   -0.10513097400874
H         0.44375615069000    1.27664279780013    0.75593018385126
C         0.61368461721177    1.33850336476407   -1.39145070721120
H        -0.16125742006462    0.60809993597698   -1.55926031966211
C         1.29007152747945    1.92232818478743   -2.46130302279370
H         1.05217068406670    1.65602862196436   -3.47923175781349
C         2.27346303781188    2.85033669622644   -2.18730155780184
H         2.81643375449802    3.32117469675665   -2.99099182471199
C         2.56394602128637    3.17848899588735   -0.86193496765199
C         3.57654871175731    4.13004784658932   -0.44312289750872
C         4.40746592862216    4.84631500277740   -1.30534330363762
H         4.31590185041838    4.71492495733278   -2.37129387846746
C         5.34385000026166    5.71859424307983   -0.79012252549868
H         5.99373886857841    6.27949678550519   -1.44280654250131
C         5.43051772283426    5.85486321281484    0.59405099865042
H         6.14907945924047    6.52185581906951    1.04207132728020
C         4.58183347152299    5.12155980539249    1.39290724691236
H         4.62781769058141    5.20635866448542    2.47134307466284

