66
CSD_code = LOKDIZ | q = 0 | S = 0 | Stoichiometry = C27H32I2N4Pd | MND = 4
C        12.57740042766244    9.55933050286715    2.58759728802206
C        12.95294217689371    9.56137413060433    1.27070560271001
H        12.39245597140416    9.83072291469285    0.39746068565165
C        14.70539009285117    8.84909287956690    2.39532429088612
C        13.72843130216517    8.96002748250373    4.69499999216144
H        13.05422994127395    8.12693491388270    4.96868934530758
H        14.74300228257742    8.73809147784954    5.03745795746057
C        13.82115346853496   10.86140595169333    6.31781212352777
C        11.93785842816353   11.85083841743686    5.75424571956468
H        11.16601619555186   12.59276039485713    5.80996709321144
C        12.04421363389181   10.75581499032345    4.93901293279607
C        14.93646932622467    8.92891856990915   -0.05419866780867
C        15.85630044972690    9.88316165624765   -0.48460613351495
C        16.49664828718942    9.67439537864672   -1.69648949951780
H        17.21211453395528   10.40499253853508   -2.04450041182348
C        16.22925178017119    8.55521162653553   -2.47296477228812
C        15.29535204992742    7.63192634315740   -2.02125851521496
H        15.07403171227752    6.76382815421998   -2.62409239645481
C        14.63229726933705    7.79912664835369   -0.81558149212290
C        16.13585496286282   11.10262986769839    0.34182444281466
H        16.74536439917537   10.85067958944348    1.21057859349704
H        15.20840253811030   11.54954254295748    0.69756416002997
H        16.67319410475987   11.84239690934375   -0.24492208284064
C        16.91088562154169    8.36148500706338   -3.79109521701003
H        17.87622668834902    8.86124156053222   -3.80894558215464
H        16.29713505646745    8.78321710945742   -4.58726369488545
H        17.05291940378289    7.30455066399754   -4.00284787055538
C        13.62189209144648    6.80606081164917   -0.33428367058475
H        12.63629136341160    7.26348303162229   -0.24962755281633
H        13.89081132718977    6.42220995709037    0.64999305551905
H        13.55008945346341    5.96985973941179   -1.02320331929784
C        16.04316419842133    8.29738691380164    2.71749047478961
H        16.61848228002085    8.98359183321930    3.34141008758969
H        16.59046895942782    8.12768624178665    1.79291295637408
H        15.95531686356654    7.34760509548329    3.24651531851910
C        15.07481121151418   10.52077923588919    7.03197858580102
H        15.93618201650158   10.55228186162689    6.36241908561685
H        15.01660597479504    9.52190961369125    7.46612659624114
H        15.23341317716187   11.23703258701998    7.83506734216016
C        13.20463865122367   12.86441697856764    7.61203883584882
C        12.45928641693050   12.73732259400108    8.78525079457826
C        12.62156789610257   13.70460590730477    9.76520888959962
H        12.05287226006967   13.62271301048142   10.67945001232719
C        13.48918885393213   14.77495473324108    9.59509840211660
C        14.20714504133537   14.87541672248564    8.41077756108293
H        14.87676149332843   15.71028008360720    8.26440312837191
C        14.07535017195188   13.93266138549131    7.40319207862568
C        11.51965115840881   11.58770440400523    8.97046796235221
H        12.04187399085450   10.63684397631716    8.86249647509030
H        10.72355559047064   11.61083584926484    8.22656996065154
H        11.06462596374906   11.62159896319592    9.95577155976790
C        13.62577227740226   15.82239437444722   10.65523716509658
H        14.63577651272345   16.22490021515859   10.67709778495995
H        13.38166260073323   15.41935560805330   11.63473126821206
H        12.94094615791295   16.64511660798359   10.44870941578673
C        14.84070740000604   14.05653443222931    6.11972837660699
H        15.25328294943552   15.05663579587159    6.02047140434426
H        14.19614854403612   13.86105766539464    5.26379694871731
H        15.66691098501213   13.34496977867541    6.09139871038417
N        14.24848944788311    9.12083878056168    1.17387636882686
N        13.70802519933347    9.11676000791656    3.26147069680062
N        13.24382919461295   10.16747461985079    5.31686998468652
N        13.02543071699942   11.89464331113493    6.58943324742967
I         9.52710818656357    8.82897733389316    1.60789662198129
I         8.76704421785161   10.53168194313072    4.97320858051360
Pd       10.86097709938780    9.97731977309837    3.52697491385901

