49
CSD_code = LOMYUJ | q = 0 | S = 0 | Stoichiometry = C17H23Cl3N3O2Sc | MND = 6
Sc        1.85381509321711    7.34356808307278   15.53459555500230
Cl        0.30157123862642    7.31658710340760   17.20630628528328
Cl        0.99455156994037    5.70547591012214   14.06517703218731
Cl        3.35618387682555    8.99178710367332   16.31170464947792
N         3.42595101839714    7.36974520833493   13.83396325464141
O         5.51323502875761    4.91358574227838   15.35451168709124
C         4.48808338971217    6.57221334548653   13.89752735896423
C         2.03029180982453    8.96737463364125   12.87000233716458
C         4.51953256095032    5.76480131292031   15.12136917327878
O         1.70499742553151    9.82712243559432   11.91012779793881
C         3.93727344752638    4.97391695821936   17.11232952441797
H         4.12048556796290    5.59649668500287   17.99953541891575
N         3.60518250935732    5.86949750115049   16.01383536171437
N         1.21660321356785    8.83748502899153   13.85210873787453
C         3.26322549483827    8.17730557812185   12.79015239743607
C         0.08269967489687    9.72113869276573   13.62324362089012
H        -0.80877578954668    9.08859295003725   13.50764254166557
C         2.75105508236002    4.03927929170597   17.42673912107541
H         1.89220745889513    4.70257277048035   17.61532187787884
C         5.45486595231591    6.54713017678390   12.89576331517256
H         6.30352665129134    5.88711777330483   12.97814513381024
C         5.24549766499391    4.30169512391568   16.62300618015643
H         6.09478363851177    4.49487163573141   17.28124178252108
H         5.14357743132909    3.22560369398483   16.46528403995573
C         0.45248919319300   10.41402026203596   12.28684233137897
H        -0.26954526759806   10.21686214792090   11.49199704551205
H         0.59967203805536   11.49170907335754   12.38687393751514
C         2.39256967686081    3.12896399564363   16.25413554350749
H         3.19488383356756    2.43066244907918   16.02218342941405
H         2.15919886297047    3.71534735833714   15.36633226332208
H         1.50919962897271    2.54919367935140   16.50788962239387
C        -0.14284706792554   10.63889046414998   14.84249174637442
H        -0.25149740802012    9.96428897895270   15.70629120308345
C         4.17873029425195    8.22454940573652   11.74204114059286
H         4.01658777054995    8.89200633671270   10.91087808909159
C         5.28693518117059    7.39157147430230   11.80717090628342
H         6.01711511812811    7.40006295467663   11.01193064917363
C        -1.43453877254651   11.43271823257318   14.66618445792686
H        -1.36705689845679   12.09996231672005   13.80886162025784
H        -1.62126675403870   12.03303727004590   15.55225625642552
H        -2.28195047817204   10.76714154278024   14.52118836314747
C         3.04241202215782    3.23265467810626   18.68935298581559
H         3.89867603627044    2.57689943161629   18.54273027793108
H         2.18169298157796    2.61935962846368   18.94112753870922
H         3.24960836806745    3.88998151593372   19.53024942026953
C         1.04469212364990   11.56031944273830   15.11249087542157
H         1.20012727868567   12.27053335373703   14.30218771790095
H         1.95578098804159   10.98281575500894   15.26351314892237
H         0.85921024049508   12.12668351330095   16.02116524511361

