35
CSD_code = LOQXIA | q = 0 | S = 0 | Stoichiometry = C14H14Cl2N4Pd | MND = 4
Pd        2.70818797070407    2.14799085383940    6.18717737284330
Cl        1.29852409462675    3.41022551674494    7.42317106889207
Cl        1.13776977324629    1.87389212898943    4.59272808079201
N         4.21632177081778    0.21798791973521    4.25255294307590
N         5.38723701937252    1.81900395057427    5.08024670157881
N         5.35947402699830    2.71821429732807    7.25305828745664
N         4.09978122626281    2.07308800799374    8.87653057194786
C         3.13056482959504   -0.67988196650940    3.95847560437867
C         4.13969877426952    1.27748406574506    5.06850136890219
C         6.22866521456034    1.09392906324973    4.27518928701469
C         5.48575136095196    0.09014733513457    3.75398828150098
C         5.73013670597773    2.97061133822010    5.88362535374751
C         4.09650216562115    2.34937231397113    7.56080092437704
C         5.35355117132765    2.29215175284403    9.39649300348749
C         6.15097954164725    2.68259241919537    8.37562460525197
C         2.96919053295974    1.61010915797149    9.58335155690295
C         2.08656830659963    0.72471024998308    8.96706234347244
C         0.96239367111137    0.30093339751562    9.65197350957627
C         0.72172653293800    0.74068049474339   10.94380004150063
C         1.60943514476329    1.60716054618326   11.55690179315556
C         2.73379378298747    2.04556256485964   10.88025861308649
H         2.19056005975080   -0.15414499232835    4.16335402984144
H         3.16437538176189   -0.96723671797026    2.90904127859497
H         3.19965686227528   -1.57543222587494    4.57977859736469
H         7.25724403128326    1.35291605538438    4.13072525417180
H         5.75850018846997   -0.69059311738762    3.07399849253744
H         6.80437738394295    3.16284851276096    5.81354626490918
H         5.16396986766755    3.84649353728153    5.51641207754523
H         5.58547242660813    2.13296555932600   10.42918264313822
H         7.18854772940615    2.94595889145931    8.36137166129634
H         2.27600895025856    0.36807304129285    7.94720603379158
H         0.26792084233295   -0.36932494466997    9.16979883796775
H        -0.16246260687349    0.41314134863139   11.46883904563959
H         1.42094478870583    1.95849731740393   12.56007015011928
H         3.40733047707822    2.75047232638019   11.34416432014017

