31
CSD_code = LUBJID | q = 0 | S = 0 | Stoichiometry = C13H11ClIIrN2O2 | MND = 4
H        11.74153017529668    4.75114685847663    9.80601239825227
H        13.36147293508826    2.64946923770902    9.07149892795949
H        12.50731537872969    6.68449749088152   11.82959277074424
H        12.82143827576946    5.74447771999519   13.31371338723729
H        11.12606916422481    3.58943754695805   13.46376336008989
H         8.72306055054019    3.14610470192818   13.69798472116216
H         7.84900069915482    6.87700614714597   11.79336908556171
H        10.25223182472819    7.31363455812912   11.55115813548042
H        15.93025320859290    2.14274050706054   10.22020478476621
H        15.72971902460075    2.04152068219562   11.98843316743016
H        14.74431786110543    1.01727232332930   10.92025680766484
C        15.27368239751987    3.58411276047395   15.68804643871629
C        16.08593183617860    5.10166502456579   13.49935638663030
C        13.97530817608924    3.90130675778057   11.99797739835438
C        12.54949536187189    4.27573186612346   10.32253728692426
C        13.34474469406140    3.24115603343080    9.96336744461129
C        12.33125350974681    5.72591779978980   12.32959445537306
C        10.85268338539380    5.47986542399533   12.48689092038346
C        10.41021913808448    4.30804614229141   13.09079791748819
C         9.05757115263443    4.05683243746642   13.22629447914966
C         8.14501368958933    4.98472619247586   12.75658743714933
C         8.56601309521383    6.15679540372348   12.15602588513255
C         9.92222890889463    6.39784906807964   12.02055444227423
C        15.21055109538186    1.99772811960409   11.02773385882957
N        12.95266627145051    4.66576844179967   11.57045505081244
N        14.21009567295428    3.02863842342622   11.00160379442757
O        15.46092656435375    3.32190358692797   16.78480832266203
O        16.89202079181653    5.88325885472253   13.22954041232379
Cl       13.14795979340054    2.31684472323502   14.28716688311686
I         6.07073531769853    4.60707784906220   12.95419826020805
Ir       14.77939004983415    3.85106731721832   13.89777537908585

