61
CSD_code = LUNGOS | q = 0 | S = 0 | Stoichiometry = C30H24ClFeN3O2 | MND = 4
Fe        2.60577489342599    3.40592225092382    3.12960177466662
Cl        3.38633531292921    1.57779972043364    3.29666996999981
O         1.08364213461270    6.06675928403002    0.38543899251997
O         4.81291310407970    5.11944596947499    6.47006583891129
N         2.12671022423010    4.62404363785377    1.75108645795017
N         1.47238105523837    4.55907396089490    4.24454392875490
N         4.32945372228313    4.47168773954678    4.38424373510131
C         4.22555972303333    4.84845362335180    0.50386877277780
C         4.55852707836237    6.14614644436523    0.87445483001972
H         3.77978084055474    6.83327111831322    1.17434832919948
C         5.87785601100541    6.55946011927709    0.85533705037260
H         6.12835342102773    7.57221010671577    1.13654015489879
C         6.87556685223279    5.68180929137377    0.46552892807786
H         7.90352150245920    6.00930646344525    0.43575102648919
C         6.55143103039675    4.38279724350787    0.11713076692699
H         7.32818060648896    3.69341621444386   -0.17612541191336
C         5.23232401157195    3.96528816244312    0.14139736879397
H         4.98221706677538    2.95074039553181   -0.13133267611141
C         2.77514159698300    4.42992228461949    0.45306851059485
H         2.71058642654966    3.37356158969329    0.16467374676697
C         1.93117706936756    5.33041468161490   -0.48105746035943
H         2.54668689827285    6.03036234368131   -1.05244563078239
H         1.31000664182099    4.74915078902939   -1.17042776568792
C         1.24128903309626    5.56665384403910    1.63689446086901
C         0.47019170863610    6.10428369750369    2.70832868497763
C        -0.41099230180252    7.16758531659347    2.47039893313714
H        -0.50969991928457    7.52712749748199    1.45753174342563
C        -1.12416249403493    7.73979126392710    3.49407479415524
H        -1.80511672374495    8.55423115993850    3.30228586439858
C        -0.94264045440010    7.26622494933263    4.79555848999206
H        -1.47901499412165    7.72974385365772    5.61136595498974
C        -0.08911629232469    6.22657364735117    5.05730326137247
H         0.05089462818720    5.88727221423367    6.07318634264365
C         0.62854781571192    5.57761622978722    4.02338067498836
C         1.56471515565517    3.93975581253793    5.47850447671818
C         0.43751939456944    3.36443428272378    6.08852303081825
H        -0.50756483773649    3.42142019000663    5.56783771496592
C         0.52689524120402    2.73525223557189    7.31062943651173
H        -0.35548302602814    2.29097999521834    7.74743032171613
C         1.74090025782441    2.67003750210804    7.98304028706007
H         1.80582161479508    2.18176867865874    8.94289253992775
C         2.86404370757101    3.23617092202417    7.41417924853030
H         3.81491521360944    3.19933314731699    7.92392262169075
C         2.79780839287923    3.85839677203005    6.17116646889853
C         3.99766325722556    4.47323087788411    5.61644188808227
C         5.87174849166960    5.66909915764934    5.69987684757180
H         6.81918591041085    5.24811922578862    6.05062770406713
H         5.87973079766966    6.75248435546958    5.84254153639649
C         5.54832038638533    5.24366026327542    4.23738711438642
H         5.32146441881634    6.11382918594409    3.60854808059592
C         6.69949019548816    4.49466326248459    3.61115764102715
C         6.60369374267168    3.16345034792035    3.24148489230325
H         5.67069199197055    2.64027413362298    3.37585494939153
C         7.69780022208562    2.51237378865050    2.69672006229505
H         7.60942027249581    1.47468035117569    2.41189118942692
C         8.89584025726724    3.18194939480263    2.52385789715805
H         9.75005392370158    2.67144728982136    2.10355034586134
C         8.99673275418513    4.51300777703561    2.89359646436588
H         9.92910609409859    5.04293694455314    2.76211000096227
C         7.90388200815925    5.16654782635863    3.43152193708784
H         7.98319693174968    6.20624917098033    3.71723485926023

