36
CSD_code = MAQVUY | q = 0 | S = 0 | Stoichiometry = C14H17ClN2PdS | MND = 4
Pd        2.25140935348416    3.68292008078934    3.47168723893462
Cl        1.04766052942647    4.61386786265699    1.85360747230966
S         2.00675323511104    5.58362303570881    5.42343960828524
N         4.16932953927116    4.40198325853443    2.60234119266330
N         3.49222702252274    2.90727228422174    4.83626267720183
C         4.48406689225274    5.66665006778251    2.36304813072054
H         3.66292219977242    6.37436681784891    2.40054870821214
C         5.77878760140829    6.06061417723080    2.06392241710615
H         6.00212074474874    7.09715760699771    1.86850448435745
C         6.77060400182097    5.09348456025563    2.01827236170441
H         7.79098381443999    5.36133855697408    1.78758567009229
C         6.43403604479681    3.77238420002400    2.26945459963432
H         7.18255562934002    2.99529589371967    2.23610066184796
C         5.11238000044572    3.45742260833537    2.55596083430180
C         4.64828238711347    2.05688032959568    2.85326929335256
H         5.38838109974921    1.32340244905923    2.53155679945934
H         3.69988204640504    1.88740746217948    2.31214324257873
C         4.37570860064036    1.87608240326470    4.36331452418716
H         3.89646341065449    0.90041699165322    4.51365078345145
H         5.32596721032242    1.88739877205420    4.91986100589242
C         3.70696906416017    3.46556707968853    5.97198760104737
H         4.50202529008763    3.09070978055310    6.62606772714416
C         2.98522409623372    4.58593906068580    6.46222887212265
C         3.01097440769041    5.08582930967587    7.74832487406526
H         3.56095499136500    4.61910218266622    8.54671442223316
C         2.22889120406678    6.23448637236303    7.90509348642444
H         2.11332378403368    6.75145376372746    8.84170667365610
C         1.63126516012671    6.63951204071958    6.74235674587749
C         0.73479184792166    7.80425466816929    6.53209494693160
H        -0.25896580903127    7.46833499953479    6.23768557072273
H         1.11441492218608    8.43974802558998    5.73328615120292
H         0.65161220797163    8.39050749044062    7.44391998653781
C         0.56413228245661    2.80856007366278    4.23777428899694
H         0.31892766727115    1.93059507134681    3.62451070491776
H        -0.27953633505043    3.50392418089539    4.20456993402200
H         0.72687385478877    2.49120648138403    5.27584630779854

