63
CSD_code = MARZEN | q = 0 | S = 0 | Stoichiometry = C29H26Br2ClN3OPd | MND = 4
Pd        7.27843486265505    6.48784744614814    9.95266572411684
Br        4.98261946570670    6.81063292298659    9.08745224862849
Br        9.61808616079204    5.79236497872542   10.40236606443552
Cl        8.47178370632223   11.79703511137457   10.88531484525204
O         9.87894348338424    6.85382493762811    6.65008990475947
N         7.19838232927739    8.04327865439414   11.42043799778019
N         7.31457476524624    3.72199168483295    8.97711049350073
N         7.50042239054479    5.14941435461338    7.33909931858051
C         8.19171892116644    8.21816842356606   12.29283359217948
H         9.05934642138039    7.57931798612443   12.19221685564539
C         8.15919526134082    9.16749491009435   13.29929356730125
H         8.99848148995828    9.25814856160197   13.97044039366109
C         7.04802630395043    9.98367593968347   13.42085874069144
H         6.99077475037991   10.73583723264621   14.19324703826180
C         6.01406510933931    9.80656420181570   12.51771231907615
H         5.12278347861923   10.41232681992554   12.55937761575250
C         6.13110905166346    8.83379927906561   11.54075299024143
H         5.32442803550411    8.68894957847350   10.83474029316472
C         7.35806208760832    5.03118117162163    8.67256786249158
C         7.45260279283461    2.97755501812892    7.82391082288602
C         7.48531370940090    1.61400169728955    7.58490640312896
H         7.40070130473305    0.90094300316748    8.39059172250137
C         7.63968634832838    1.17584675527383    6.28002093805751
C         7.76353118674952    2.09752493049496    5.22228343338471
C         7.73035460744063    3.46074731908448    5.46511337929835
H         7.83425694749753    4.15956771455700    4.64960372546709
C         7.57355247015063    3.89410926862056    6.77014433679012
C         7.67991684861301   -0.29446957480578    5.99716163586048
H         7.56704017404278   -0.86673496573848    6.91399324332094
H         8.62583427629725   -0.56972190196691    5.53261441344753
H         6.88086950970412   -0.57611914936419    5.31249291914893
C         7.93708438684639    1.60394495845539    3.81896491054138
H         7.08945929016577    0.98845914917733    3.51995870921098
H         8.83521190342752    0.99339856337022    3.73591793384292
H         8.02112784299460    2.43631663938615    3.12572263806134
C         7.54184229659135    6.40881799529241    6.63191635924878
H         6.61375453778969    6.95558122853555    6.82125147612239
H         7.63193043535733    6.19420698135520    5.56536227996107
C         8.79754698319976    7.18747611267721    7.07029883021669
C         8.63730821266477    8.31747827163619    8.02519370985282
C         7.46731839138538    9.08082634818097    8.15002876905033
H         6.59587069569721    8.88397852165331    7.54198681547761
C         7.42779060595495   10.15915264183559    9.01724464375593
H         6.53013184596417   10.75168602225419    9.10406290278549
C         8.54487516062858   10.47259611381849    9.77936692964559
C         9.72049266865553    9.74588077702397    9.65440255176972
H        10.58581617283776   10.00552838247319   10.24363553735237
C         9.76752441008834    8.68874816355716    8.76828927311741
H        10.67495443542822    8.11466549988194    8.64947255945942
C         7.20578980466069    3.18478014007449   10.32235618142580
H         8.18789470859116    3.23989129673327   10.80944254479016
H         6.91011872208630    2.13663243867549   10.23478751879039
C         6.17597128618992    3.95283337703714   11.11940278671557
C         4.82572657891498    3.81827654761014   10.81540394257107
H         4.52025138100647    3.15295173558728   10.01966237142177
C         3.87499087587260    4.54911953353964   11.50719307329184
H         2.83206501120325    4.45165783573273   11.24811295744302
C         4.26279001872607    5.41929406290311   12.51165818364040
H         3.52064282622286    5.99908301146270   13.04011144524579
C         5.60364349212269    5.54890272825212   12.83700104063348
H         5.90553777944544    6.20981257513605   13.63921378093844
C         6.56534916845619    4.82370540681303   12.14282128619669
H         7.60758982023450    4.87231262965947   12.44874121866810

