29
CSD_code = MASXUC | q = 0 | S = 0 | Stoichiometry = C8H10Cl2N6O2Zn | MND = 4
Zn        1.85765498823084    2.46454507040862    2.72151049495771
Cl        0.15455921490210    3.56751434488899    3.72003806437412
Cl        3.59397472609713    3.89245111305505    2.41483860632317
N         1.47880802728140    0.69200140365745   -0.88215763123389
H         2.12441845473664    0.02117171580690   -1.27449353996812
C         1.79488421972045    1.19157017439335    0.38241483882131
O         2.78710139203964    0.80511741958429    0.96471652506151
N         0.95564505889419    2.10308585593142    0.90808137104803
C        -0.17533134876112    2.47245064032531    0.31449211418866
N        -0.96730519361031    3.31858584663307    0.94351976406345
H        -0.73076022554683    3.57480417200682    1.92219089418584
H        -1.84471041297149    3.59777273523803    0.54008261003656
C        -0.49369351675164    1.95552254326261   -0.98970630737928
H        -1.39144469434152    2.26852789161634   -1.49299446877070
C         0.36505926872125    1.07418318132893   -1.54595784235011
H         0.20425331435602    0.63757539562805   -2.52103118229863
N         2.30004118493442   -1.05174100831241    4.60079653097308
H         1.63947403001601   -1.81514355286609    4.56132772739674
C         1.94848181424743    0.11067729842994    3.91444547801932
O         0.90624216329120    0.16971751034203    3.29518197813123
N         2.80983796132306    1.14269406582734    3.97418552449513
N         4.80604558039139    2.09992131061931    4.49621928813861
H         4.54088977323586    2.87891900557229    3.86205256073104
H         5.73063387307460    2.05647135906798    4.88887154485106
C         4.35745152089373   -0.14331490217159    5.26670087536713
H         5.30379292521895   -0.21355865700526    5.77356323388616
C         3.47558914606274   -1.16598423803552    5.25882726182393
H         3.66495717446195   -2.10453697745170    5.75949221651700
C         3.99834957985508    1.05929928222137    4.56359146860986

