33
CSD_code = MIHMEV | q = 0 | S = 0 | Stoichiometry = C9H18Cl3NOTi | MND = 5
Ti        2.16593432707086    7.92810033848258    3.27879830169135
Cl        2.32823458457194   10.11056719323925    3.38786631418912
Cl        3.38817377086079    7.33609940414193    4.95914633057984
Cl        3.63984844541052    7.47961057306005    1.76376152266472
O         0.85621216900087    6.77872707514346    3.12453052273019
N         0.21912895785876    8.00523230607784    3.12875291458564
C        -0.60784582145788    8.18159240526660    4.35317066079681
C        -1.25197150815789    9.57526494483878    4.32226028649672
C        -2.01712472343003    9.84278274686500    3.03444689579632
C        -1.05896443863085    9.68409494398780    1.86299039854815
C        -0.40787697532217    8.29427948506629    1.81050699775013
C        -1.39208068400919    7.19350286679714    1.38840182257878
C         0.71183862078821    8.33762115437873    0.75810090724157
C        -1.63831842371316    7.05515859454414    4.51796367379837
C         0.33308578666900    8.12395874284640    5.56745065770667
H        -1.91188470501928    9.66964992237704    5.18555220440888
H        -0.45590770371965   10.32021665968036    4.41130315651485
H        -2.86858586204568    9.16818872593831    2.93804877621233
H        -2.40927276766759   10.86030936435137    3.04864666180284
H        -1.57711045184152    9.85817304672990    0.91910979588258
H        -0.26416709566453   10.42878198897743    1.96467775679467
H        -0.98033477239750    6.22139230493523    1.65326825868967
H        -2.36723625156444    7.30575282548015    1.84828363443441
H        -1.52863907504791    7.22495659808082    0.31054180162819
H         0.28624339735187    8.62578492675774   -0.20165077690547
H         1.17443159315374    7.35203539591435    0.64623649267656
H         1.47371011895270    9.08050321682463    1.02436359070223
H        -1.17768516539736    6.10463032838934    4.25483782298526
H        -1.95613506215068    7.00616289571837    5.55634324986352
H        -2.52209743814114    7.20407504318893    3.90829026486117
H         1.12276123163912    8.88122355303517    5.48961505871221
H         0.77840197225288    7.12903413475099    5.66384620934727
H        -0.23906605018034    8.33063629413921    6.47023783423381

