24
CSD_code = MIRPEJ | q = 0 | S = 0 | Stoichiometry = C10H8Cl2N2SZn | MND = 4
Zn        8.04278403988891    3.01926653456139    2.95162485708089
Cl        8.60454062760355    1.10346439232142    3.87670309479700
Cl        8.46084066887528    4.02417489158346    1.05723941347131
N         5.96695082494947    3.17855716272180    3.33097792029003
C         5.51326505198999    2.92261150935207    4.55020350313803
C         4.18158917360455    2.58738916842504    4.79821602026652
H         3.86883277803564    2.37340763121141    5.80752527982568
C         3.30394475057127    2.53989741880176    3.73459425775370
H         2.26926553994016    2.27589062028263    3.89206014270621
C         3.77311510867948    2.85226047329070    2.46303626978724
H         3.11732309793249    2.84462772683381    1.60796902185801
C         5.10975531363349    3.16227145262587    2.31157014598290
H         5.53591877571699    3.40997030964340    1.34933225616061
N         8.33404228705897    4.41334476952407    4.51843836431705
C         7.86189213958130    4.12595220011216    5.72348672421680
C         8.36721547117941    4.71125868007834    6.88513366836936
H         7.95726673737428    4.42918284848434    7.84153905198246
C         9.38364751280930    5.63692921437843    6.76895403321187
H         9.80216199802273    6.10112457669896    7.64899650785934
C         9.84651655306221    5.96965061505840    5.50016615129411
H        10.62651226774947    6.70046834746415    5.36372227204074
C         9.29376255694575    5.33063397737253    4.40859409330514
H         9.61345113776896    5.54181998545055    3.39756346615718
S         6.55980558702660    2.96034549372304    5.97115348412762

