28
CSD_code = MOCFUH | q = 0 | S = 0 | Stoichiometry = C13H9AuCl3NS | MND = 4
Au        0.31692208699112    2.42528508569396    1.79946258054419
Cl       -0.03115620845339    4.21383226472289    3.19432254085211
Cl       -1.71745510519966    2.64039068252393    0.93936080422395
Cl        0.71435196831727    0.55374192724208    0.55345138134893
S         2.06291679032007    4.14950785693750    0.11431423486357
N         2.20035949790671    2.23524594636343    2.61715682358646
C         2.47619405748283    1.16362205662211    3.35572980087830
C         3.62969488412492    1.06294746471649    4.10438608683584
C         4.52594305595967    2.12572537012041    4.09008059360428
C         4.24788704388578    3.22178728912805    3.30137307306691
C         3.06861706172016    3.25530132423388    2.55021237990601
C         2.77534730186596    4.38761521087943    1.70032382606187
C         2.98235737252574    5.70208085662273    1.98805012556042
C         2.52829693518805    6.57629734514779    0.96577858961454
C         2.54275771374669    7.97430967755433    0.93111004438093
C         2.03981226407755    8.62538920178465   -0.17129094622556
C         1.51876060874227    7.91050045477891   -1.25167607055724
C         1.49303044085879    6.53091013670488   -1.24528659190474
C         1.99292958239306    5.87397716191753   -0.13196859251222
H         1.74716440078834    0.36813821655790    3.33164383966218
H         3.81569121361554    0.17698401433204    4.68847476337170
H         5.43170870467308    2.08880223018545    4.67586182162209
H         4.92929362339784    4.05461968832834    3.23528473054459
H         3.38311762220777    6.04709773137176    2.92462804396606
H         2.94301188023757    8.52340676589970    1.76951102417403
H         2.04288217545937    9.70427158511376   -0.20498667984113
H         1.12533049152186    8.44540424009179   -2.10242533815420
H         1.08643253564380    5.97270821442474   -2.07328288947247

