36
CSD_code = MOHPOQ | q = 0 | S = 0 | Stoichiometry = C15H13BrClN3OPdS | MND = 4
Pd        8.66195613249498    3.04421521799298    1.20353652915258
Cl        8.83605593439818    5.07815603967349    2.10431637076057
Br        3.37972260164091    0.48654622190836   -3.40049245642850
S        10.60818279641059    2.39988033734803    2.17219920939943
O         6.89876599921793    3.54317648777726    0.37534173396621
N         8.51970995377699    1.17360739451216    0.50424067099853
N         9.45948379529136    0.26141696444456    0.89055068460140
N        11.42256287907644   -0.14645064666842    2.08195244646550
H        12.15222146105538    0.33860061678186    2.58799281686988
C         7.59524682865851    0.72355924656214   -0.29503470980048
H         7.67622265309131   -0.31830397857260   -0.60403603942800
C         6.49373286463087    1.46073806504598   -0.79007116344509
C         6.20888728593483    2.82254613295421   -0.42162926932804
C         5.04122699418454    3.41316060391140   -0.98923440371096
H         4.83189765917263    4.43310068970790   -0.70640913347418
C         4.22473075287017    2.74240954174260   -1.85042639726295
H         3.35057372098224    3.21998920319847   -2.26637575962990
C         4.52682181669619    1.41859950326375   -2.19673935254907
C         5.62539637519558    0.79312438097642   -1.68192733368709
H         5.84617727960554   -0.22819663472899   -1.95555978276849
C        10.42784577209030    0.63030866876062    1.62268246027174
C         9.84015666361370    2.22894341662519    3.82653288547963
H         8.86308768498127    1.74382901476793    3.74543295388872
H         9.72231461965967    3.24898572123701    4.19200880914980
H        10.50156806148971    1.66277740200622    4.47761381580507
C        11.64170060734937   -1.51438486572156    1.89285141426172
C        10.75352109327463   -2.33306972957804    1.20408354262400
H         9.85832380857433   -1.90666045227039    0.78559040626432
C        11.03376373521244   -3.68031164063693    1.06435099949120
H        10.34179849138171   -4.31143712872319    0.52787650732466
C        12.18798398254862   -4.22213403916408    1.60430994729520
H        12.39936380927852   -5.27391852815877    1.49044541058988
C        13.07132539620237   -3.40619782890871    2.29233788043520
H        13.97367876180375   -3.81903964428705    2.71692176828350
C        12.80250978541724   -2.05930996416115    2.43873376365353
H        13.49328194274064   -1.42345578961868    2.97463277447752

