60
CSD_code = MONVAN | q = 0 | S = 0 | Stoichiometry = C27H25Cl2N5Ti | MND = 6
Ti        6.51528920265268   13.58617791168682    7.06484058003486
Cl        7.59118879554683   13.07281123550674    5.04698525052484
N         6.51492851791785   15.28932701241146    7.06484195966192
N         6.51690495823682   16.59711345227249    7.06561409089974
N         4.62411751365154   13.79811048472272    6.12618837695681
N         6.51748633616983   11.41536197343496    7.06549781805395
C         7.28592027766922   17.27665661293794    6.10891210692221
C         7.52450421793625   16.66572937517009    4.87518505979121
C         8.32447475600414   17.28814176554775    3.93890074344538
C         8.89794278138010   18.52060762033508    4.21332231496779
C         8.67471128505190   19.12125532142987    5.44265075253225
C         7.88082736665861   18.50788839935609    6.39185832222843
C         3.65617868272817   14.44643305231574    6.79420018199854
C         2.57439216694323   15.03926176474473    6.17408608963173
C         2.45890167281164   14.96755603172460    4.79035409030631
C         3.43767024242328   14.27380042061961    4.09635320261422
C         4.48789769479937   13.70258115632220    4.79475817649828
C         7.64194355821551   10.73396677919489    7.25357775394999
C         7.69180203465352    9.34918218719009    7.26524438168226
C         6.51947802171425    8.63853623082023    7.06315311574292
H         7.07637142244918   15.69928456800129    4.67780640952552
H         8.49978857859971   16.80845226328050    2.98752518537467
H         9.52078397993871   19.00714499055008    3.47785036862502
H         9.13294993537430   20.07329424641261    5.66899795836416
H         7.73326207261947   18.96843910598854    7.35755371182836
H         3.76594578457628   14.49199606085612    7.87311112645417
H         1.83429103806672   15.55331575275517    6.76718331126831
H         1.63130606687875   15.43093024222122    4.27544063727601
H         3.39169013820069   14.17117103819531    3.02313666024535
H         5.26067336135030   13.15325237643260    4.26620572468361
H         8.54609503658703   11.32134356569997    7.38977982295621
H         8.63033551444685    8.84187182005116    7.42603101801724
H         6.52025505502616    7.55855289422663    7.06222337441494
Cl        5.43827788918445   13.07212933241458    9.08179341391353
N         8.40563622904163   13.80004987060112    8.00322648256790
C         5.74937008750079   17.27771693191109    8.02277620521695
C         5.50887055851786   16.66621266128025    9.25583695769479
C         4.71002125328153   17.28967156138966   10.19239771296427
C         4.13953481318755   18.52371826737798    9.91888884264234
C         4.36466874296956   19.12498617574779    8.69020570501140
C         5.15749771242841   18.51063159850965    7.74076606045602
C         9.37400766547674   14.44714417480433    7.33455042628118
C        10.45539277222952   15.04118292939071    7.95416022237419
C        10.57009384625352   14.97212739925225    9.33808453005555
C         9.59091173785097   14.27965718790955   10.03284346974697
C         8.54113800393482   13.70704356520082    9.33496870238790
C         5.39400425495385   10.73267482226805    6.87625161142713
C         5.34613430134181    9.34784196283135    6.86225144298281
H         5.95457000741359   15.69849605348628    9.45249446518524
H         4.53319738525227   16.80953000963196   11.14326719109452
H         3.51747460875909   19.01098902090221   10.65453625436302
H         3.90870712428854   20.07827654825017    8.46452933015882
H         5.30652724481075   18.97169547705288    6.77554062902389
H         9.26500815738279   14.49044515640114    6.25545476932688
H        11.19592765346543   15.55398639431998    7.36051750929451
H        11.39734492871016   15.43655107870297    9.85260465993090
H         9.63629074047518   14.17919147731513   11.10629953578757
H         7.76804235335481   13.15868344660399    9.86406292305067
H         4.48900382458437   11.31897601240401    6.74102144451992
H         4.40833803606427    8.83944317164032    6.70059982506631

