28
CSD_code = MOYYEE | q = 0 | S = 0 | Stoichiometry = C5H13Cl3N2O3RuS | MND = 6
Ru        4.77270934440473    6.31552320611446    2.59910504116384
S         2.99805582915303    5.97827147543395    1.17731385030158
Cl        3.50881421375779    5.48133015282090    4.42949779611656
Cl        5.96263950397283    7.27414855043178    0.79926764128974
Cl        3.81312281222098    8.31487304689828    2.93550992830089
N         5.48362916359073    4.82126924710424    2.34093379788930
N         6.97692047440130    8.03731621015391    5.83962676498191
O         3.04976669246409    4.67762010429917    0.55703849286470
O         6.38757813447642    6.90402541704181    3.99406948229242
O         5.96636614708012    3.80252914227834    2.16559322263299
C         1.39637518560212    6.15138792920662    1.99894109570050
H         0.61947202187500    5.97477771332441    1.26339798018100
H         1.34422574482045    7.15001289898484    2.41971076607003
H         1.35261869515557    5.40943510234446    2.79117760172575
C         2.84276044716307    7.22497554709353   -0.12039886176495
H         3.76427453618862    7.21146094956214   -0.69560308372226
H         2.71493977362762    8.19050734306569    0.35693545897940
H         1.99373137391242    6.95740034933684   -0.73955209874662
C         6.08058620004196    7.48381232462523    5.04784281927058
H         5.03994290473754    7.56268551683902    5.39092397278364
C         6.62145646630466    8.68433734451753    7.07626176797642
H         5.54642909565688    8.63324022519390    7.23151589903854
H         6.92765193694555    9.73203474488392    7.05046273166908
H         7.12568859532171    8.19460826681358    7.91166023248564
C         8.38268832579309    8.01082774799922    5.50113913653378
H         8.93191855853119    7.39798869487333    6.21756482521646
H         8.78572734827664    9.02375129062086    5.51528037605535
H         8.49291047452936    7.58864945814410    4.50418336271286

