48
CSD_code = MUBCAP | q = 0 | S = 0 | Stoichiometry = C20H24ClIrN2 | MND = 6
Ir        3.01155997283906    0.89936031278703    3.85084272626837
Cl        4.19268222904898    1.22012883144826    5.82966961029867
N         2.10808187973539   -0.73866027484160    4.78098553914455
N         4.15017746851565   -1.75876416077480    4.60959844984027
H         4.48485960221160   -0.79517887562773    4.56883379162304
C         0.82488638106657   -0.75490341704991    5.14406217741974
H         0.28671980425675    0.17531703399716    5.02458328290970
C         0.19480722307759   -1.87042760167106    5.64929532344146
H        -0.84342662383156   -1.82881750429317    5.93355193817075
C         0.93242753208745   -3.04541128688361    5.77064952421049
H         0.46907738254792   -3.94734018795045    6.14102976871088
C         2.26252039723102   -3.04242990605639    5.42391081349467
H         2.85770025385478   -3.93582351961236    5.50765004602641
C         2.84867042776063   -1.85498532111039    4.95277485244877
C         5.11973593603634   -2.80248574583776    4.83429618955467
H         5.10130976806956   -3.14786400947122    5.87727030539873
H         6.10744624279701   -2.37118887679931    4.64826586171462
C         4.91446913936291   -3.97461111937958    3.90304435387632
C         5.19033251440706   -5.26965018752937    4.32009126015266
H         5.54845098450237   -5.44301926791583    5.32539460002254
C         5.01083282850043   -6.33763558638638    3.45831856719363
H         5.22875755884482   -7.34076312136639    3.79392035980353
C         4.54808721607544   -6.12158777661564    2.17179206385142
H         4.40353299572897   -6.95532419692642    1.50098802344226
C         4.27139487630283   -4.83237722356888    1.74905426550143
H         3.91172529631839   -4.65781221280048    0.74565535022917
C         4.45668158034630   -3.76513143779781    2.60868873349438
H         4.24172300961807   -2.75891913913296    2.28167022234220
C         3.36902995466278    2.90114374537053    3.23986254968317
H         3.62219535904120    3.50904829903434    4.10702285361284
C         4.37477505621688    2.08344172968188    2.71477803228558
H         5.33570673349394    2.09279809012885    3.22527354787026
C         4.44024510081594    1.69717599999926    1.24981653403154
H         5.48528968447158    1.59753346841086    0.95260383684258
H         4.01020637231528    2.50110274095040    0.65175442216865
C         3.71197901879327    0.36940484890987    0.96672585530591
H         3.31249574838950    0.36776381480810   -0.05313585987804
H         4.43148123772897   -0.44970110993254    1.02992155227174
C         2.59496117493514    0.08708598411306    1.94866921288222
H         2.33733152168598   -0.97113324391235    2.00569506400970
C         1.58248260880110    1.00529116865427    2.27336216713255
H         0.62725950292426    0.58570217560352    2.58144683706425
C         1.47492252631131    2.37196178537979    1.62503421040381
H         0.42232008684165    2.64880147457960    1.54582892638041
H         1.87000315747029    2.31753607230453    0.60985391402641
C         2.21520108922528    3.45491282063525    2.43284722216856
H         2.58312102679644    4.24155643732046    1.76613607754475
H         1.51466916177726    3.92197947711906    3.12701504360316

