44
CSD_code = MUNPAM | q = 0 | S = 0 | Stoichiometry = C17H21AgBrN3O | MND = 2
Ag       -1.95674022771952    0.04500919449836    4.72171264476821
Br       -3.20215090111043   -1.42393805386943    3.33919067652088
C        -0.90285247367672    1.43709160005604    5.97169169624627
N         0.10100111042462    2.29727200308112    5.75278259277902
C         0.37881436136909    3.03978287024331    6.87623770915730
C        -0.47792725279436    2.63917462813884    7.83856362636354
N        -1.25910760782993    1.65471960493778    7.27039089257598
C        -2.26439863650494    0.99390208409812    7.93636976350979
O        -2.94898846766537    0.06383858297716    7.24188967130287
C        -3.91937774231651   -0.46072257701124    8.14576095196270
C        -3.68178859721561    0.32193314464606    9.47382844040950
N        -2.57808634412699    1.20789200484216    9.14122173391138
C        -3.26448504597024   -0.60171969026203   10.61679722156313
C        -4.89830573304608    1.15550147478644    9.87294756991859
C         0.79663732308069    2.42083218589388    4.51885467834220
C         2.01647977552984    1.76187792608319    4.36116464458128
C         2.68917358183083    1.90540952618502    3.15935333506078
C         2.17303643988523    2.67820389680715    2.12631122449461
C         0.95528259073720    3.31485817179865    2.31144558114881
C         0.24929121043850    3.19837272454075    3.50004589307653
C         2.56251988671364    0.90605879386411    5.46351110330893
C         2.91931550305865    2.79684635756330    0.83416477351192
C        -1.07563409204626    3.87294443040455    3.68279497068590
H         1.15001723278443    3.78264624285414    6.88828282682551
H        -0.62107919251331    2.94118669554502    8.85379776797432
H        -3.74888235310818   -1.53441177386265    8.25136446261401
H        -4.91223462595223   -0.29012135284401    7.72429090774702
H        -4.08003191330900   -1.27508115336212   10.86656953725611
H        -2.39271297900214   -1.18718437982029   10.33287694557785
H        -3.01066606241773   -0.00746160854746   11.49017182906189
H        -5.73457220262226    0.50249351710405   10.10856956284556
H        -4.65684909067801    1.75678216713918   10.74491548986173
H        -5.18420140500677    1.82264212327767    9.06253466008138
H         3.63322973329549    1.39918365477068    3.02013042085847
H         0.53930433603413    3.91136076779298    1.51288149368844
H         3.49812940043374    0.44475289552319    5.16046977990410
H         2.74109727885714    1.49249562038585    6.36484614377331
H         1.85254524539927    0.11691094041594    5.71260044679976
H         2.46537671863055    3.54288416950298    0.18737134766687
H         3.95739235842369    3.07069574994201    1.01506972299552
H         2.91350199765657    1.83986479129409    0.31314011779781
H        -1.09773432381682    4.45637702978302    4.60285743181055
H        -1.28894577141333    4.53037899513165    2.84432224637136
H        -1.86989304272036    3.12386402367116    3.73950546329050

