49
CSD_code = MUVDAI | q = 0 | S = 0 | Stoichiometry = C17H26Cl2NNbSi2 | MND = 8
Nb        5.23500601940905    5.56406140796777    2.19905995314533
Cl        6.13546821206862    7.03725105928271    0.67986155517980
Cl        5.99534731890837    6.55791745409015    4.12880803386081
Si        2.87038782635702    8.49760587930574    1.83082686592420
Si       10.93615407862032    0.21648595875093    1.78717313254563
N         6.48035925066871    4.30246305061407    2.09363115919041
C         3.00406563264591    6.61659429784304    1.97585605310920
C         2.99148117611604    5.87846262721985    3.17479816102308
H         2.80567867073738    6.28397716012408    4.16202973319522
C         3.14142966826417    4.50239857215527    2.87826898250019
H         3.01028585441825    3.68213357394755    3.57470379389373
C         3.23005146531766    4.37891829154101    1.46483413557256
H         3.18035066446407    3.45060129410561    0.90727717310832
C         3.15714677574646    5.68445374137422    0.92037716197765
H         3.08678275522620    5.91450816866007   -0.13633666005749
C         7.45467306862890    3.39077052882552    2.01533210975813
C         8.75974869952221    3.79122559835511    1.67580744128040
H         8.92823968478694    4.84325379110355    1.47798839279447
C         9.77353824721858    2.86231079459779    1.60910384433338
H        10.76900398823137    3.19045961943914    1.35023845659432
C         9.54886286306028    1.51040677011474    1.86812535165670
C         8.24997235464428    1.12279638132126    2.19813290479387
H         8.04932813718338    0.08083073497596    2.40196136892431
C         7.21757806780395    2.03011543455911    2.27429727348374
H         6.21191907382089    1.72655073303387    2.53505346296020
C        12.61812522634354    1.05233464773718    1.46297172495033
H        13.41925939407757    0.31952160447019    1.45798740362654
H        12.85196574874224    1.78510561013532    2.22912732273473
H        12.63485877368599    1.55842356480253    0.50268464613061
C        10.99970057006527   -0.71415854383191    3.45355277046950
H        11.78657918456630   -1.46235170949931    3.45887329157962
H        10.06311896857785   -1.22328157109094    3.65858300909066
H        11.18737405621090   -0.03302848255055    4.27817403230066
C        10.54504263454923   -1.01096410662037    0.37680324271521
H        11.29239896767205   -1.79632484806932    0.31667122065651
H        10.51617712252227   -0.50939660012182   -0.58586124736212
H         9.58037258054265   -1.48654083966013    0.52482276874991
C         4.26096541642101    9.31027710348556    2.85509301990088
H         5.24628356288029    9.06024283926030    2.46438758941933
H         4.23028642207181    8.99134875080446    3.89484831804022
H         4.17032885384043   10.39265975036145    2.84454619360094
C         3.00017600573928    8.98524829306378   -0.00782771123430
H         2.19762453185428    8.54997748387594   -0.59663408110480
H         3.94515972168204    8.66727365912275   -0.43964622942020
H         2.93580357891182   10.06307545400394   -0.11800261443749
C         1.16903802980427    8.99463831403264    2.53927942902025
H         0.35511747147126    8.52082386799114    1.99941326327911
H         1.03229241635606   10.06806342245965    2.46457194755389
H         1.07209120751214    8.72337941258165    3.58587084902127

