47
CSD_code = MUYGUK | q = 0 | S = 0 | Stoichiometry = C22H15ClN3O5Re | MND = 6
Re        0.87046363696175    0.34460226415266    6.44258008377978
Cl       -0.63069429297675   -1.11596965837795    5.24906525753469
O        -3.89436746856847    0.14442712318244   11.84891897117270
H        -3.85255833087421    0.42529923223948   10.91700304390854
O        -0.10103990367079   -0.04996529140980    2.39027948815462
H        -0.39137252081584   -0.34472234143101    3.28656605276586
O         2.59900191791301    2.39773265073853    7.97375286481786
O         0.55204828675784   -1.76700984235947    8.67930839044034
O         3.26940494268466   -1.14921509524878    5.19509439442833
N        -2.00174779493001    0.73591583807667   10.12883523178718
N        -1.01961828854101    1.45890424581173    6.80463789861146
N         0.58858343525231    1.47395983535163    4.69866048022989
C        -1.23849322877722    1.03394866994781    9.15327320398592
H        -0.14501860760111    0.98908668273404    9.18896561769861
C        -0.59880278704483    1.93591743834783    4.52776925864980
H        -0.94047375287756    2.31395583343523    3.56720633951600
C         1.96917371384443    1.62049847310552    7.40841847914481
C         0.73380890023767   -0.94383584739660    7.90708067132923
C         2.41542081062833   -0.59796899502236    5.71444537057362
C        -1.56876600700627    0.30937174998283   11.36473273975214
C        -2.62278349442187    0.00890487990454   12.25786173011214
C        -2.33884998204161   -0.42324483649997   13.54801543054287
H        -3.15836058403408   -0.64501580395049   14.21272326372968
C        -1.02550553399696   -0.56375407248461   13.94809549841597
H        -0.80724514126380   -0.90217546493379   14.94957003181412
C         0.01814304737079   -0.27804786174933   13.07367821734110
H         1.04009642429716   -0.39694294983015   13.39920650060171
C        -0.24581195195139    0.15419877606550   11.79331646367800
H         0.56932520879217    0.37199487502797   11.11993604063099
C        -1.80304126741746    1.47765198643964    7.89043080455291
C        -3.12161784549766    1.94254106667511    7.83482840015136
H        -3.71189513922579    1.91755676705961    8.73577359842500
C        -3.63037561530534    2.42654209098272    6.64491957538972
H        -4.64693708167593    2.78318580990125    6.58353002556298
C        -2.80397725712540    2.45319614104603    5.53576681159598
H        -3.14479404519686    2.83375523209404    4.58603610478495
C        -1.50701394539214    1.95427465801490    5.65142392403028
C         1.43938806671270    1.38713801922308    3.58134220232394
C         1.04809237521105    0.65304669857785    2.44693035926862
C         1.90102125347691    0.63664247978235    1.34582097908507
H         1.58806782908969    0.08120397834646    0.47596354628627
C         3.11085218601042    1.29985291682196    1.37761834599347
H         3.75366376115274    1.27464044914370    0.51111694899842
C         3.51518922459220    1.97195250639311    2.52186666014445
H         4.47192172303301    2.46853265401373    2.55470237848405
C         2.68526419335527    2.00539211615872    3.62351270996753
H         2.97183093085870    2.52914392191713    4.52451960980464

