52
CSD_code = NAGLUC | q = 0 | S = 0 | Stoichiometry = C22H24Cl2OSi2Zr | MND = 12
Zr        3.13357047263884    1.10108565508987    3.36545023801002
Cl        5.08609769014161   -0.18715211957739    3.24223271214406
Cl        4.25967814779311    2.29475826840258    5.07310231426853
C         2.02084667201287   -0.15714298219871   -1.26159552191184
H         2.22708032640020    0.53006976193604   -2.07376084094527
H         0.99190162426194   -0.00767945953074   -0.95342025821451
H         2.09919864271953   -1.16436200427224   -1.65686349392332
C         4.94664178313079   -0.67446514196866   -0.25194566731822
H         5.46058744854269   -0.10057174445850   -1.01525000693112
H         4.83222611542998   -1.68734978756578   -0.62511493798593
H         5.57919224916286   -0.71352439716855    0.63021070121766
C         0.53849078789122   -2.59427712305932    1.61259095656965
H         0.10391627296127   -3.38859473842560    2.20773102244810
H         0.77812890440362   -3.00567355693807    0.63797055371603
H        -0.22370235564557   -1.83515977640538    1.47058012586598
C         3.45722610314017   -3.22092266556065    2.58742417468979
H         3.20845693576756   -3.96249781197956    3.33881825664970
H         4.41237115470445   -2.77378228443322    2.84669560626262
H         3.57722119777262   -3.74137453183958    1.64203635650801
Si        3.25927148995309    0.09187360518585    0.16479133256862
O         2.62075860035227   -0.58713557596398    1.55151858050391
C         3.33568063314551    1.78942953334932    0.95740540071553
C         4.50005254363076    2.41624680553871    1.47665414958986
H         5.51005528949356    2.18359496407453    1.16085809468633
C         4.15486644136540    3.42969859990047    2.36907984501283
H         4.83658218539230    4.10621884742178    2.86323215519737
C         2.73708254929716    3.44782194245762    2.48532220990805
C         1.84623368209429    4.23655504294397    3.23896263247103
H         2.23187465762657    4.98360017782008    3.92000340871030
C         0.49397586215607    4.07107519666961    3.05913588890387
H        -0.20164495848319    4.68095712487148    3.61659856410402
C        -0.01316281288268    3.14163872786624    2.13237522719217
H        -1.08282751564341    3.07644510877868    1.99435029247796
C         0.82104935670138    2.32935520289009    1.40149329494049
H         0.41979325696481    1.64203397888248    0.66687707662408
C         2.21595197149472    2.44066061229134    1.57568636820073
Si        2.10198027133881   -1.89723960559592    2.45125758588661
C         1.72796358598783   -0.79474942086118    3.92566287920012
C         0.84674304414790    0.32165220127743    3.78667097264476
H         0.07820927503589    0.39807709247583    3.02526342464902
C         0.98946021587431    1.19307430882768    4.87912797879767
H         0.36454654524498    2.04893390469032    5.09922708188899
C         1.92710844466799    0.60388664132378    5.77621346930115
C         2.37537426424293    0.97581516968242    7.05453618349702
H         1.98239156852941    1.86452974258641    7.52793487034067
C         3.32130939054804    0.20108264327530    7.67684478273840
H         3.67824979384070    0.47504378185813    8.65807633059587
C         3.85026443196280   -0.94336436959007    7.05715231969935
H         4.60770851216582   -1.51249791888351    7.57536528848030
C         3.41842012931705   -1.35420582195603    5.81986566875334
H         3.81006119468554   -2.25381093645100    5.36409311672693
C         2.43058592652592   -0.59858086768236    5.16047123387043

