63
CSD_code = NECGOR | q = 0 | S = 0 | Stoichiometry = C21H27AuB10ClPS2 | MND = 4
Au        6.87260074433836    9.28784160789090    6.74105318208683
Cl        5.66742580482747   11.21893945971161    6.29046031904988
S         8.32640940634172    9.63752382328353    4.97021105880957
S         8.06115806562627    7.43685161592813    7.43577238573405
C         9.29514001348603    8.10639723062757    4.88384319301241
C         9.16963815015416    7.06234613839065    6.05126109962617
B         8.45511057808930    6.63782055387698    4.54392414593452
H         7.28350829518402    6.72587240342350    4.49928640507016
B         9.55995274066379    7.33242464021230    3.37240815452332
H         9.10756950481609    7.84985474360161    2.42170627752684
B        10.88117883871683    8.14411674687976    4.23733602709659
H        11.27388096771002    9.17480413108261    3.83670988095072
B        10.64155890856753    7.96077543046122    5.96453899828792
H        10.75051134780920    8.82379434678027    6.75431712200440
B        10.64462866393937    6.25107603227871    6.36731878591722
H        10.85763530712860    5.94507359799428    7.48141800618790
B         9.32161061172575    5.44373963042222    5.49757917170002
H         8.69535747749637    4.62759972534325    6.06419348681602
B         9.62125442966134    5.58978042800174    3.74777238431116
H         9.26157999020984    4.77244514296973    2.98408639306543
B        11.13035694637183    6.52364722211855    3.54703843026017
H        11.83879138395378    6.35837342185904    2.62377220191120
B        11.78739235943001    6.91072953305704    5.16388201774511
H        12.93786703730504    7.01009034570478    5.38326283996895
B        10.98079193470315    5.33880705611833    4.88008516220276
H        11.58084988857432    4.32835543805656    4.91102487922495
C         5.67205706279854    9.12862451413723    8.43114230445948
H         4.66646561808143    9.45425254321143    8.16702635571698
H         5.63260021693195    8.14299034363370    8.89379471645364
P         6.35075950507359   10.30474845812183    9.58235473934223
C         7.51104757036790   11.49073167294282    8.85617128897021
C         8.75654780912696   10.98261357367232    8.48396369744910
H         9.00558359344180    9.95103525102095    8.70559624320848
C         9.66605442981096   11.79954215731976    7.84111861431208
H        10.62095896836013   11.40259965913899    7.53086693929587
C         9.34128464145221   13.12210200736288    7.58010214954770
H        10.04396138996477   13.75332909822224    7.05774657848460
C         8.12150155595138   13.63468727780500    7.98790668807621
H         7.87454039244492   14.66700449294208    7.79101243432790
C         7.20067068044855   12.82411749818116    8.62957943903347
H         6.24231167577916   13.22025959285417    8.93109958864191
C         4.99464948017654   11.21530627114223   10.35053564490391
C         4.13629436416730   11.89306746642769    9.48449087931910
H         4.32257546691372   11.86720522816537    8.41694330135712
C         3.05871232282259   12.58722126399170   10.00192110793480
H         2.39592313474293   13.12024467445211    9.33719262013104
C         2.82725549892295   12.59215632547440   11.36946713695078
H         1.98213385515796   13.13144509359158   11.77011061053268
C         3.67063512665771   11.90031835465011   12.22374910753742
H         3.48051627154761   11.89656344456604   13.28663703981740
C         4.75798915320610   11.20778690108313   11.72001898653689
H         5.41429136878421   10.66207870785110   12.38341480155265
C         7.34931553296944    9.50544075973616   10.85574458014437
C         7.55701918963809    8.13435324102725   10.92246873482861
H         7.11398950521860    7.47010850321776   10.19619121149088
C         8.37189127050226    7.61611357508087   11.91560040135920
H         8.54218527501105    6.55143764308630   11.96088186222802
C         8.96961432776528    8.45651174588780   12.83918915405992
H         9.60147406173332    8.04568650171947   13.61196452013213
C         8.76883861850056    9.82763208474287   12.76827002511137
H         9.24342132865410   10.48357371824992   13.48259049889064
C         7.96758677667982   10.35456687485530   11.77494457598800
H         7.81758356335254   11.42426303435487   11.69432941285090

