51
CSD_code = NEVJUT | q = 0 | S = 0 | Stoichiometry = C10H27Cl3MoN8P2 | MND = 6
Mo        9.14086700910153    2.62232308583407   15.12098486290137
Cl        9.13460468650957    1.69015340527396   12.95604734718779
P         9.24436612585185    5.67952870700267   14.56067505049205
N         9.80707240124415    4.18391451537368   14.54695318919928
Cl        8.70987422117399    0.39264996836763   15.81422217383464
P         6.68368561375651    4.48239424540523   14.72059570170201
N         7.62629469607091    5.77974593977523   14.51189865770903
Cl        9.90429716229826    2.89813881599975   17.33222008932057
N         7.45762474410774    3.19279239837441   15.28362728716142
N         9.96452875803108    6.55736639861199   13.33476159672584
N         9.75862815723573    6.51931845990666   15.91986979446665
N         5.36668616002583    4.79712137323464   15.69655453829412
N         5.94094244120594    4.13198711498498   13.25632131440250
N        11.26407250668931    1.76317588385003   14.98011003794891
C        10.31474373087657    5.86059785755072   12.11516008852595
C         9.47037008300219    7.90416891319581   13.15301291237246
C        11.18474697544536    6.40135113249698   16.16593452874601
C         8.95675183142865    6.42492559151572   17.12247482125498
C         5.47494127106519    4.51403956652079   17.11237749602135
C         4.62726980027804    5.99597291871638   15.36661961259056
C         5.21874224070640    2.87189307785701   13.27175349896196
C         6.70982420620616    4.33857616930262   12.04552974871253
C        11.86840650393585    0.80574109820157   15.15880580189837
C        12.59697808538912   -0.39476995329927   15.39025758764973
H        10.47011124773814    4.80607283443179   12.35353906219258
H        11.24008063472318    6.27988490113585   11.71078187486302
H         9.53484142979902    5.93885993277601   11.34925853124247
H         9.14866978414205    8.27823348299078   14.12318098915809
H         8.62349684036675    7.94581449084996   12.45936913705722
H        10.27266021233006    8.53697691578327   12.76587340576815
H        11.69775692890001    6.38739501627150   15.20525243764960
H        11.42846239677129    5.48562273473376   16.71573579941582
H        11.51929700847564    7.26527493016790   16.74430271381799
H         7.90583891074803    6.43150574276982   16.83487737747223
H         9.16214567787601    7.29564623805315   17.74982126027901
H         9.16731643245102    5.51489735856244   17.69689283942229
H         6.19404557031983    3.70411918476067   17.24972294654178
H         4.50028177076453    4.19665611014032   17.49220628213295
H         5.80664131669295    5.38437203636226   17.69028273758104
H         4.70072894099683    6.15120995404861   14.29167924161523
H         5.02061743487965    6.88028116328381   15.87958892651260
H         3.57914379089857    5.86455240140138   15.64542496941074
H         4.72567864055334    2.77032166261950   14.23775368906565
H         5.88677716571427    2.01529159200138   13.12055896167977
H         4.46768704242185    2.88171245191896   12.47950207697092
H         7.28216529207990    5.25886642541259   12.15689362179237
H         6.01865458281284    4.44490256892625   11.20627942566632
H         7.39838524479047    3.51043570378028   11.83732020835944
H        11.88055206225647   -1.18230994218171   15.63154759057645
H        13.28034627518308   -0.25584280559705   16.22764723600833
H        13.15529795366416   -0.67035976946079   14.49603891968842

