37
CSD_code = NICHAL | q = 1 | S = 0 | Stoichiometry = C17H13AuF2IN2O(1+) | MND = 4
Au        1.24184209228150   -1.47409090138434    8.04813161507269
N         0.66731033860852    0.62565637849765    7.86316919694492
I         1.06054617179623   -2.27098360882383    5.62689818952270
C         0.38909274207153    1.24015823078058    6.72800827773907
H         0.39528776905812    0.65363770925911    5.81882478554870
F        -0.18243558977146    3.17950114017261    5.54297924832378
O        -0.49318314705439   -3.23812173909896    9.10265994620442
N         1.37335521107638   -0.75341876169535   10.05921094390770
F         1.92401648186154   -1.82916956659955   13.40164291145828
C         0.09587890780263    2.59873701326436    6.69641045091171
C         0.10487046069651    3.33189319341183    7.87501514762527
H        -0.10996457350370    4.38919618686326    7.86118672589862
C         0.39739424432331    2.66520270016332    9.05121332565456
H         0.42017484128313    3.21896121339565    9.97431967075208
C         0.67164505472999    1.29640985628144    9.02599884357797
C         0.98321544921940    0.51982637423790   10.23295616736695
C         0.88394854419866    1.05223320576837   11.52111409631228
H         0.55367882120844    2.06575264368878   11.67301844678871
C         1.19539167191103    0.27497883942528   12.62063671497642
H         1.12394361107526    0.65871698642755   13.62658853131576
C         1.60791381140775   -1.03119088923850   12.39388163040922
C         1.68338892551614   -1.51445190396114   11.09527716211509
H         1.99877013427568   -2.52933180302133   10.89898728985269
C         1.72882387836495   -3.36231572911624    8.47179380461374
C         0.62789768819937   -4.01266999911378    9.01770946312225
C         0.76976624814621   -5.32962069800094    9.43553633900194
H        -0.06729629289663   -5.86460342240065    9.85403794144737
C         1.99852472071090   -5.95528847480896    9.29294923551575
H         2.10288094008029   -6.98252235443109    9.60518791672548
C         3.08075402377462   -5.29119685590097    8.74791573964714
H         4.03106886868659   -5.78625452717308    8.63234710998328
C         2.94328128093187   -3.97574446809991    8.31232341088791
H         3.77606003251791   -3.46728461774912    7.85285969453973
C        -1.71676146058543   -3.85404504896417    9.46832191518802
H        -1.95386677379132   -4.68266299372363    8.79768353723102
H        -2.47731795871143   -3.08177971706030    9.37213912369552
H        -1.68509716950092   -4.20841359127067   10.50196545011848

