63
CSD_code = NIJTAE | q = 0 | S = 0 | Stoichiometry = C30H22ClNO6P2Pd | MND = 4
C         6.96225031742850    7.61660116966275   -0.33131435756764
C         7.24030395258605    7.94997198420947   -1.64977148914898
H         6.84983477681830    8.87875448257165   -2.03712183752381
C         8.01311393688502    7.11676181303340   -2.43615463967863
H         8.22339415377088    7.38591249851882   -3.45977991278247
C         8.50696664926699    5.93730103112833   -1.90404592790929
H         9.10274962155583    5.27401595882449   -2.51238751592701
C         8.23634857097406    5.60955818035825   -0.59022205098380
H         8.61146864686229    4.68399582689367   -0.17990962749315
C         7.46419900234143    6.43810808575404    0.22586036143877
C         7.22069869774810    6.03698287067943    1.62249803570071
C         8.24360954602650    5.47098497120384    2.38171356057032
H         9.23247666983980    5.39938465711434    1.95487277342334
C         8.01714839381152    5.02530639139846    3.66987633626775
H         8.82767026560038    4.59916879941668    4.24047622500535
C         6.75501182069785    5.12842134787990    4.22848894500482
H         6.57330099226007    4.77638946180579    5.23183262113892
C         5.72702117899868    5.69729295038134    3.49896115524690
H         4.73392803145420    5.80250382553954    3.90733494777560
C         5.96169508642703    6.15077509006690    2.21231356576254
C         3.37129868270664    9.09844700198424   -0.81928088365170
H         3.15341010049608    8.80041095693724   -1.84792481461810
H         4.14738000488142    9.89077881637715   -0.82275225113901
C         2.13388666626420    9.63760142521090   -0.14156218478566
C         0.88236005950628    9.59420099104598   -0.73891629155044
H         0.76783997187727    9.16714733465006   -1.72264519435631
C        -0.20584543966546   10.11368574811043   -0.05489997036625
H        -1.18906927280038   10.09697795068747   -0.49992658059274
C        -0.00561517518149   10.65883604515605    1.20332345728328
H        -0.82314254065019   11.08327742596795    1.76337762949031
C         1.27457079445159   10.65867812405455    1.73255723446267
H         1.48825836267213   11.09450077120279    2.70189754087530
C         7.39922324271781    8.45682302658579    4.10172371838512
C         8.75687435455956    8.19889807964688    3.99894024206164
H         9.24822246915087    8.38861947213688    3.05762539948714
C         9.45002555130791    7.71561713444500    5.09453016295962
H        10.50949361318755    7.52415676542066    5.01382779541801
C         8.79135040415278    7.48212522449547    6.29023943349406
H         9.33495454633752    7.10170073273918    7.14216201752969
C         7.43997704975154    7.75458270433263    6.40154787648296
H         6.92693121668379    7.60289676342237    7.34006296511399
C         6.73246385539660    8.25949780288568    5.31891645274143
C         5.30336828921040    8.59999532377153    5.38059605923407
C         4.33704738289069    7.73329419541205    5.87925497513436
H         4.64945059111719    6.79651947568401    6.31679621048535
C         2.99288238048377    8.04874860881099    5.78517994588187
H         2.25235237213453    7.35876956950573    6.16212255487340
C         2.59291491150584    9.24083707936636    5.20185225005667
H         1.54138429050397    9.47904005227721    5.12913750382756
C         3.54081621613295   10.14394330137454    4.73518434622170
H         3.26548191851881   11.13673936049167    4.38375989197375
C         4.89455732059541    9.83130816535790    4.85418549129746
Cl        4.20644575062319   12.44532152181129    2.16071563118583
N         2.31120840827283   10.15397010106667    1.07368730179832
O         6.23941182418984    8.53827898520187    0.40739088226843
O         4.89500668707859    6.65418033102312    1.48589157353557
O         3.85127442466046    7.94095865851417   -0.15685078077167
O         6.67854463855737    8.83990714214382    3.00043773984880
O         5.84771419170290   10.72280066858666    4.42989227221539
O         7.45012864968857   11.29681336423030    2.53565991952067
P         4.83160865891892    8.20795481250427    1.11915465147544
P         6.28558139346458   10.49007867514262    2.86249671167465
Pd        4.29478087044840   10.23278891384688    1.90840994524945

