40
CSD_code = NOBYUA | q = 0 | S = 0 | Stoichiometry = C15H18CdI2N2OS | MND = 5
I        -1.32842749662999    9.44864253413168    5.19687527453995
I         1.19308195948205    6.55947639724173    2.26116785725896
Cd        0.85985076083760    8.00576297101948    4.50471590209394
S        -0.86560418743028    5.10907436280686    6.00634925237798
O         0.23619825778312    6.09965824689522    5.89792770156622
N         2.36898974819293    8.58408090544197    6.29250115780702
N         2.36332836697600    9.87617110368480    3.88123196092376
C         2.32077440942849    8.00920870670850    7.48011041266374
H         1.73744885123762    7.09884175547503    7.53819736880126
C         2.97203985676578    8.52370009554103    8.59344839094044
H         2.90505180427647    8.01962497783224    9.54421709951790
C         3.70253670134840    9.69351979082850    8.45157902436160
H         4.22041864346037   10.12670539391392    9.29429452681175
C         3.75563262657140   10.29871140245531    7.20887153090172
H         4.30959326142124   11.21263605883479    7.05714157835457
C         3.06934933793873    9.71429210865264    6.14238933729922
C         3.09527485795159   10.32340666853665    4.82166097032963
H         3.75323444922935   11.18966499042198    4.69974274733934
C         2.40762538746522   10.36931312047700    2.59045940682362
C         3.59372983668766   10.80368198417436    1.99185950834827
H         4.52130296188771   10.76274195116142    2.54543518824248
C         3.59453244984586   11.21440686319967    0.67519031020143
H         4.52301025473407   11.52569379141930    0.21829895639714
C         2.42343588478346   11.22457496157535   -0.07474009471792
C         1.24336426291205   10.79582623603543    0.52839333542138
H         0.32666581781115   10.79098415607319   -0.04211335114791
C         1.23067514228595   10.36049419223891    1.83472893537211
H         0.30379596475856   10.03697370780216    2.29072298816713
C         2.42879751693760   11.65069573394418   -1.50769168245387
H         3.33134939883258   12.20678134981722   -1.74864308241564
H         1.56033168236104   12.26761599170157   -1.72901651439947
H         2.38514669433902   10.77246297791263   -2.15220131963048
C        -1.85877018452865    5.29431155684037    4.47847655550050
H        -1.25944647496845    4.94239565623532    3.64296543500812
H        -2.12381362907624    6.33886076473275    4.33290148954396
H        -2.74864269088926    4.68293483823607    4.57584695924001
C        -2.09863174072809    5.89504508835801    7.12054013305609
H        -1.67037158172763    5.94082513870531    8.11706104461696
H        -2.99179331273595    5.28154453322521    7.13191488929868
H        -2.32226584942087    6.89805693569436    6.77098881596385

