35
CSD_code = NOFTUX | q = 0 | S = 0 | Stoichiometry = C18H10Cl2N4Pt | MND = 4
Pt        1.74849489924661    0.19194909747080    8.20146316801478
Cl        3.25226265640504    0.46143557279072    6.57600704281111
Cl        3.31195030349260    0.67854083649470    9.71634128338700
N         0.25845511879432   -0.25668544765241    6.93708153390182
N         0.30751316371971   -0.07957478143400    9.56866896048824
N        -4.40178788750398   -1.37366489170015    7.01935354504364
N        -4.34365973393034   -1.21028896615375    9.81228279255376
C         0.28332268056127   -0.33376701527696    5.61043551311971
C        -0.84314635104533   -0.65427421300324    4.86423197259753
C        -2.04434541422379   -0.90528905497431    5.50266739427129
C        -2.08741783208610   -0.82912692039997    6.89594691958431
C        -0.90661962618401   -0.50059742547848    7.57887988490444
C        -3.29133974942568   -1.07315395202929    7.66331320963072
C        -5.50760549547662   -1.59913527645717    7.74092163838716
C        -6.71941624451029   -1.91995631197807    7.09179108724732
C        -7.84256620276306   -2.15233498675240    7.83212427880542
C        -7.81144108750672   -2.07774447116256    9.23939706059336
C        -6.65787667632257   -1.76858899038015    9.90073060907103
C        -5.47697214022594   -1.51952058533687    9.16857602357190
C        -3.26253032320159   -0.98578628992706    9.09199109180062
C        -2.03137997572519   -0.64425662836611    9.77419413772813
C        -1.93482455302116   -0.53793073691038   11.16278334633945
C        -0.71217721002008   -0.20308938038293   11.71639313683432
C         0.38306686609999    0.01860595826785   10.89192678383184
C        -0.87947582889836   -0.40633893332349    9.00928205200747
H         1.23937066461522   -0.13011930984502    5.14488336682370
H        -0.76839511872878   -0.70424633313658    3.78984118158545
H        -2.94315513646943   -1.15646097556906    4.96307061467604
H        -6.72186611710542   -1.97264889122850    6.01440344085164
H        -8.77295373040250   -2.39781207074816    7.34211503323511
H        -8.71857366476437   -2.26911233126577    9.79295236380625
H        -6.61393366960860   -1.70583294811133   10.97674102824440
H        -2.81069281670848   -0.71794172433026   11.76498420430500
H        -0.59657511827016   -0.11093187184688   12.78428966205110
H         1.35459135119369    0.28338025013726   11.28963463789491

