58
CSD_code = NONVUI | q = 1 | S = 0 | Stoichiometry = C27H27BrIrN2(1+) | MND = 8
Ir        4.23283031829725    6.09174978492712    7.17203762556409
H         4.71140371317562    6.88862643956696    5.98739409977417
Br        4.80531666484971    4.11150677723090    5.80453347468502
C         1.76288797883704    5.95984948384533    6.73522537700535
H         1.62772228092049    4.89331219456472    6.59200832012792
C         2.27980490235582    6.66216549699771    5.70001745640925
H         2.52690774627546    6.12940760036757    4.78708587673564
C         2.29324230607054    8.16061015003547    5.57374019756070
H         1.29691080124383    8.48326576380796    5.25605025518126
H         2.98330438818024    8.42607613834903    4.77215291638349
C         2.69291703697425    8.92816297026161    6.84937351107061
H         1.80729058835099    9.15173039751784    7.44617776738771
H         3.11858729131673    9.88358171160337    6.54102352848381
C         3.69223466419534    8.23168365783586    7.74976232415170
H         4.62704595700623    8.77160547923263    7.87800434405271
C         3.32400480976365    7.37216316027841    8.77209276336055
H         3.98989935565031    7.30233487695309    9.63053552220266
C         1.90913158837444    6.97193663453716    9.09366650744024
H         1.44475528679344    7.80967784246421    9.62679830237706
H         1.93929978164539    6.13915958645105    9.80013494960534
C         1.02616881248008    6.58996366794409    7.88929182900377
H         0.25765524589159    5.89656605419556    8.23758164276244
H         0.50622292773806    7.47279742065279    7.51488415647908
C         2.83902793586139    3.81992731569705    9.03303091861221
H         1.93513431997812    4.00905448004009    8.47579102190976
C         2.84599337461497    2.80283719336047    9.98981749125950
H         1.95279563148227    2.22293291284379   10.15536176338592
C         3.99653658925297    2.56957720818190   10.69986516967380
H         4.04540881604099    1.80108757313918   11.45600067867344
C         5.13414948581495    3.34499931738004   10.42036890775074
C         6.36823517069571    3.15875069633951   11.09975209323125
H         6.41878048402912    2.40190060734475   11.86750401067249
C         7.45373034872056    3.90900140751853   10.78548055998567
H         8.39258153643048    3.76989381622926   11.29845051334547
C         7.38789837860933    4.88358643315268    9.75713247557067
C         8.50839863873252    5.65064245676750    9.37665520437110
H         9.45197064081903    5.52594545830752    9.88132899956636
C         8.38086476423561    6.53431982326912    8.35683049014538
H         9.21604548658781    7.12759002382983    8.01761292338789
C         6.09189161318870    6.04690030801139    7.99096069567614
C         6.18352051691186    5.10930818057057    9.06012043242647
C         5.03374320726914    4.33627624180957    9.41736502796449
C         7.33381132880956    7.67871405395207    6.58480353854114
H         7.61779668804946    8.64742092561102    7.00532526661084
H         6.36925126637021    7.77538586842330    6.08956608991015
C         8.37481991121403    7.21648711447922    5.59171222857570
C         8.19352435842689    6.01456375852672    4.91808094714729
H         7.30767743365959    5.42492439036522    5.09643882473363
C         9.14413241905822    5.57760800940303    4.01349332675075
H         8.99452402932862    4.64455359339973    3.49354499515050
C        10.27760943555597    6.33728854336038    3.77355220828702
H        11.01684473320411    5.99686127966141    3.06534276350226
C        10.45939245997269    7.53695532223865    4.43997049084097
H        11.33817465549566    8.13448572173406    4.25290123483897
C         9.51306956768065    7.97418299276835    5.35123979571527
H         9.65724324148719    8.91455422983520    5.86488109523293
N         3.88251676884352    4.57193737192349    8.76037389162850
N         7.21286031717888    6.71881208090817    7.68377117713141

