42
CSD_code = OBILEQ | q = 0 | S = 0 | Stoichiometry = C12H24Cl2N2SiTi | MND = 4
Ti        0.20574472630431    2.42146761892853   19.92511976913735
Cl        0.54516409669994    0.43477312090958   20.70965337757512
Cl       -1.79900500131772    2.70029461635093   19.16268963205603
Si        2.07271351238476    4.30822846371134   19.90842322273470
N         1.47500514137297    3.10658979971188   18.78716989749645
N         0.88062640556652    3.71514260311304   21.04184373742198
C         3.89690542041442    4.35539519620241   20.52253837764029
H         3.99244501121405    4.20266158107456   21.59837876860101
H         4.54383928968477    3.61412950523530   20.05258770906210
C         4.36001128986976    5.73181748171215   20.16000925253817
H         5.37909445469564    6.00831783028368   20.39213592840120
C         3.52202385200214    6.56799978034813   19.57086602278981
H         3.81268819631446    7.57131805071975   19.29200622936779
C         2.12228310301375    6.12632574884655   19.27683801424464
H         1.91829550743428    6.21927989200449   18.20941098124680
H         1.41694705420872    6.78871604753459   19.77964025995098
C         2.05143710971693    2.41882345598723   17.66603963657268
C         2.64319836343881    3.41363227181160   16.65957248847810
H         3.05894975415682    2.88950185929268   15.80280721984514
H         3.42812873162965    3.99518245665838   17.13650825688849
H         1.86594910493153    4.09372707648785   16.31875052632515
C         3.14034449140509    1.44537672402391   18.15466211655176
H         2.74409061068054    0.84492067042613   18.97875301809180
H         4.00147850216608    2.00268928681980   18.51463678884192
H         3.45943245163686    0.78753517762745   17.34952759228419
C         0.91160210500040    1.61425623519255   17.00746886761013
H         1.26594797693588    1.09139923291809   16.12131788166595
H         0.10519386050559    2.29426661659676   16.71868087043872
H         0.52259589032760    0.87488813058604   17.72326103314036
C         0.18486917383196    4.30391825372124   22.15144537519139
C        -0.80770692925005    5.36467713580732   21.63968904100597
H        -0.26521653717318    6.22255185392371   21.25038370177075
H        -1.46426956048710    5.69760720234786   22.44032266626439
H        -1.40841997419627    4.93691837113671   20.83168632390841
C         1.16994419301599    4.93539090098499   23.14320433724152
H         1.73978979588669    5.71715542273813   22.64721878214074
H         1.86174204875885    4.17739848031810   23.50335435163352
H         0.63895639741249    5.36413644905524   23.98933488236935
C        -0.59879732727233    3.16512476591261   22.83644206520293
H         0.09594145805561    2.37749771580002   23.14187580397114
H        -1.33194153252095    2.74699847704779   22.13062860475476
H        -1.12692221846122    3.52986844009812   23.71541658755132

