63
CSD_code = OCUGIC | q = 0 | S = 0 | Stoichiometry = C25H34AgBrN2 | MND = 2
Ag        2.37203049688360    2.15425331898717    5.07495985398830
Br        4.58142228527595    2.74889148369720    4.40875240086852
N        -0.67267782422799    2.44618879882867    5.77704796898181
N        -0.04602650852528    0.38906468471144    6.01301328879476
C         0.36106458395007    1.61231897915184    5.67926172246553
C        -1.49098790240584    0.31364227080826    6.24340010446514
C        -1.86663795393946    1.80824772211652    6.33733552058575
C        -2.24164127349949   -0.45689973388741    5.11355243518963
C        -2.18234879925589    2.29019578630815    7.78710120631687
C        -1.80074541599537   -1.92533843896396    5.06218997441566
C        -3.74586105833889   -0.44561801002265    5.40748256229580
C        -1.97651225654888    0.17025556345557    3.74365052553293
C        -3.41433407438093    1.54361878006659    8.31044838065479
C        -2.51566402312306    3.78741690115692    7.80916037788271
C        -0.99534479989361    2.05108766210246    8.72204413779627
C        -0.69884092432078    3.72704708420113    5.10616044349116
C         0.87616787187978   -0.65016763790417    6.41376300293191
C        -1.18358480827833    3.58935294316406    3.68333417844652
C        -2.51239604850233    3.83618358506180    3.36171661640967
C        -2.96560147380189    3.65884004672206    2.06543971200380
C        -2.09348933562613    3.23282816926318    1.07878935805708
C        -0.76490242007832    2.99300766256495    1.38926306155819
C        -0.31513626637651    3.17116580539863    2.68417350611699
C         1.19157803401562   -0.56395943667525    7.88731433399135
C         2.12925213472998    0.34879466400584    8.35113284898035
C         2.38633184662650    0.46822969996548    9.70406022005180
C         1.70594639529121   -0.32794338183660   10.61084528772852
C         0.77568146274372   -1.24737870895845   10.15832482580620
C         0.51969748228007   -1.36444488259233    8.80263177984161
H        -1.67596029203306   -0.20890457409239    7.18478303494644
H        -2.72790239987397    2.04832264916116    5.70966846893727
H        -2.49569793840985   -2.48993392717794    4.44396070117760
H        -1.79982180941425   -2.37410542853169    6.05381437826263
H        -0.81573990788071   -2.02597035544027    4.61513366298612
H        -4.27305952661937   -0.98716579982824    4.62573342620159
H        -3.95579618895394   -0.93127650416922    6.35777833068085
H        -4.15058978768590    0.56144066854687    5.43974742441405
H        -2.39527390014842   -0.45994128925025    2.96277505663017
H        -2.42901763573991    1.15369498380474    3.65390157991401
H        -0.90805255885609    0.26823451065941    3.56165460867629
H        -3.64175350000868    1.87976583930000    9.31923214278177
H        -4.28015642233581    1.74266766068307    7.68292213120619
H        -3.25796355368395    0.46978503600624    8.34924342838434
H        -2.95782789219348    4.04509030159924    8.76937870541753
H        -3.23465205090083    4.04520546007584    7.03372194562481
H        -1.62078085968451    4.39230538267700    7.69281049595760
H        -1.18722853219272    2.51457272333095    9.68674270043973
H        -0.82018259174277    0.99261865992916    8.89221643042135
H        -0.08549532156089    2.48636959977093    8.31338013466076
H        -1.34059606795283    4.42010989257016    5.64640910070060
H         0.32681287818135    4.11704735660522    5.10773130341783
H         0.46036685343895   -1.62933396710813    6.18484563931588
H         1.79687866870879   -0.51034585972683    5.83328959593836
H        -3.19653210105467    4.17769357871276    4.12702000825132
H        -4.00068421599681    3.85471939502229    1.82688765247566
H        -2.44678569257061    3.09420085490153    0.06813387517744
H        -0.07810227521417    2.67105609977916    0.62132357877974
H         0.72863419351532    2.98986631123941    2.92626986322450
H         2.66781329610623    0.96815685849592    7.63901452618676
H         3.12050668178783    1.17936379774883   10.05097179096336
H         1.90548994144795   -0.23654784045330   11.66785993536924
H         0.24828053762397   -1.87600221279738   10.86072601429074
H        -0.20216945459122   -2.09074124300765    8.45376869257697

