34
CSD_code = OFAXUR | q = 0 | S = 0 | Stoichiometry = C14H11BrMnN3O3S | MND = 6
Br        4.59368645958642    2.56550690767169    0.44891507540335
Mn        3.28088775090127    1.92772434774581   -1.54204151463452
S         5.23706435966820    0.84393488641445   -4.57183625556210
N         4.13535486088443   -0.60098381276385   -0.49135151354537
H         4.75733069294555   -1.30959310122517   -0.12019067688098
O         4.92889188730436    3.81611159392549   -3.06134332258013
O         1.76726717113910    1.14252794058836   -3.91667674873825
C         6.18200388286524    0.82558769213458   -3.10529318265743
C         7.33975042922678    1.53907046410797   -3.26013815635905
H         8.05707391469378    1.67638876596568   -2.47070216663675
C         2.93831499723431   -0.38298570220445    0.12493018549784
O         1.55575796905330    4.26983726532645   -1.20976648489834
C         5.75705283936164    0.06852923444459   -1.94505049832415
C         0.52358562074470    0.08275466895365    1.27324578601111
H        -0.43850043203097    0.30725062270201    1.70221698775085
N         4.55812736953184    0.21246142119989   -1.49044083030485
C         1.26944077934231   -1.00751730775339    1.71209331165932
H         0.89913043200565   -1.65049741928698    2.49505555717571
C         2.21131717754637    3.33228839724691   -1.32406495661990
C         6.76324947863733   -0.85768999419015   -1.31762295404105
H         6.46007429147151   -1.90017455573227   -1.43534339737029
H         6.87534768189503   -0.63493071507437   -0.25474045000117
H         7.72749260216504   -0.73443286236065   -1.80019127746941
C         6.40222651423709    1.83894876125453   -5.34151189107917
H         6.23755911730073    2.14511368835424   -6.35526860259992
C         4.32057100029903    3.02138988468296   -2.49493131735118
C         2.37195903828937    1.41344944048067   -2.97612633925252
C         7.45264060230503    2.13220445506956   -4.53140683625352
H         8.27922728112371    2.75195117926189   -4.82761952214247
C         2.49136061798075   -1.25048968301136    1.12859982533397
H         3.10983189677375   -2.08023021680795    1.43285915751915
N         2.23050753333408    0.67882931588065   -0.28634877296728
C         1.04045344105188    0.89014830138804    0.28254181551695
H         0.48616074107906    1.75011613562276   -0.07025003361386

