52
CSD_code = OJAHUC | q = 1 | S = 0 | Stoichiometry = C26H19BrN2O2PRu(1+) | MND = 6
Ru        5.65987182879402    3.04264455106712    4.77157241234015
Br        8.10772660602330    2.63993390564198    5.43055220641711
P         3.42700602149057    3.45296351693821    4.08356161699877
O         5.98241629626882    5.55392488076430    6.39619790825107
N         6.33420961008932    3.85949019970229    3.09644641019137
O         4.92938674789355    1.30688283516629    7.11434736310060
N         5.80819874035758    1.42591739453817    3.64566065236061
C         6.27672958199687    0.97595958022617    2.68480047154814
C         5.16046521633222    2.00345504040971    6.25373050358540
C         1.66385277010354    5.45046345673602    3.37776563290936
H         0.91587805113200    4.67609754315592    3.47708554159933
C         3.00608743874945    5.15331097908565    3.61539574282043
C         6.83405984167479    3.63245983754526    2.07391455564157
C         2.95644831668369    1.06749501618875    2.76968878712384
H         2.97409736581426    0.63570251041361    3.76342255755383
C         3.09445028133828    2.44751531117313    2.61471399887901
C         0.29081717285426    2.54204133728564    7.29167383984293
H        -0.44058748045580    2.34515875069041    8.05977710023291
C         0.05489866909162    2.12864817826016    5.99065747737839
H        -0.86103325172434    1.61379868162518    5.74420736038460
C         3.97068185278292    6.14760486365250    3.49315669088291
H         5.01508010894794    5.92198009803875    3.67202252761196
C         2.79333411075142    0.26435825245481    1.65734482600157
H         2.67020356451427   -0.80131318201706    1.77675676087836
C         6.79953135652728    0.35781777492837    1.56833183487858
H         6.71678679345415   -0.72301382092198    1.59048376082765
C         7.43964371713154    3.46640016073375    0.84593403439809
H         7.76790441336892    4.39667464988043    0.39517703451040
C         3.59478847240327    7.43151161651527    3.13737981106396
H         4.34378609930524    8.20321808250189    3.04721168243583
C         2.40490069621008    3.45432041650988    6.62791650430452
H         3.32454237146345    3.98105530724868    6.86570449132139
C         2.17421128494484    3.02934968628702    5.31992735607634
C         1.29824566813094    6.73407766289885    3.02083270733005
H         0.25987625649560    6.96399875370634    2.83836451989517
C         0.98932067171792    2.37320279814696    4.99911292434341
H         0.80045352352131    2.05102054432286    3.98444265038717
C         5.79649930327614    4.62788333632784    5.77255980694002
C         2.26149787409675    7.72529081276198    2.90322604150289
H         1.97135823041486    8.72808912865670    2.63104188517065
C         7.40429859529986    0.94022250907555    0.49807078290679
H         7.75010367803448    0.24768166732006   -0.25877000793829
C         1.46406030190801    3.21011654658691    7.60983531194671
H         1.64430769637486    3.53759555370869    8.62194241803303
C         3.09928840083735    3.01022028105611    1.34206437614569
H         3.21532475697803    4.07927364523709    1.22503094670657
C         7.68424484567754    2.30490527792647    0.18109286223233
H         8.19465302456007    2.42582085983971   -0.76601798312761
C         2.78648006272403    0.82824845491142    0.38946443982719
H         2.65733521485695    0.19898242124673   -0.47752114755419
C         2.94190458158453    2.19611243413305    0.23340945010979
H         2.93597264722306    2.63192989971248   -0.75400143920132

