33
CSD_code = OJIWUA | q = 1 | S = 0 | Stoichiometry = C13H13ClN5Pt(1+) | MND = 4
C         5.22925409426056    4.87130002748619   -2.54566556555085
H         4.98001780695472    5.42810032360456   -3.44532390152961
H         5.68519695192081    5.54119125678268   -1.81390190815829
H         4.31894191057732    4.46315171561872   -2.10206251051137
C         6.63324158130994    3.52444342548727   -4.08964706378193
H         6.37804119139473    4.09721093875752   -4.95820968094612
C         7.46598345712640    2.43030921526884   -3.96911203855996
H         8.01986856805348    1.94712892654298   -4.74583024923676
C         7.42420910846149    2.09593519158972   -2.61361461739669
C         8.05380613170573    1.06330495944298   -1.80996344359249
C         8.93622537799551    0.06635308940921   -2.21246982397654
H         9.23836598086043   -0.01379862552877   -3.24309413718843
C         9.41426316314586   -0.81697108619311   -1.25245156305933
H        10.10011361359731   -1.59762146538907   -1.54110639767113
C         9.01985188035717   -0.70594057940076    0.07514569586853
H         9.38719077358666   -1.38683199710533    0.82437747408689
C         8.13498515533933    0.31120607596520    0.41729536726275
C         7.58143676804196    0.63166458643223    1.72091643780999
C         7.71930293979524    0.07828081394265    2.99594177724399
H         8.31348150991790   -0.76295338756347    3.28379182013914
C         6.91825415198975    0.85569892793218    3.80777422920504
H         6.73242954228754    0.77946317737832    4.86001487156857
C         5.44180612662293    2.82731397722629    3.48920009833684
H         5.86589102894478    3.81469482788795    3.29595268378499
H         5.25435313217082    2.71222915521171    4.55367320960618
H         4.50069053749154    2.75569297501106    2.94035805186669
Cl        5.06816424327553    4.18710177010098    0.59528145014659
Pt        6.46906673398479    2.55693274797903   -0.00579113777499
N         6.59972299471396    2.96166251299036   -1.97260956992685
N         6.13545652902510    3.81134239046900   -2.87859444049386
N         6.73411658956294    1.68879777845548    1.78995482227138
N         6.34745735330995    1.80504391499761    3.05297686019648
N         7.68841307221753    1.14936243920967   -0.52550680003889

