41
CSD_code = OLUPUH | q = 0 | S = 0 | Stoichiometry = C17H17AuCl3N3 | MND = 4
Au        1.57515819571539    2.75127413453490    1.71952867514435
Cl        0.66331272521475    2.52481126464554   -0.34392803751501
Cl       -0.34351394705542    2.13721218542947    2.70723701752244
Cl        2.61939232874139    3.09916478787984    3.72955348113573
N         3.79488032462823    4.31864154187979    0.33548428076442
N         4.33327207953042    2.31228354729875    0.90884411822813
N         2.94657095681532    0.63528454464950    1.64934597521132
C         3.32777251365952    3.21172917461066    0.90143821569870
C         5.10201917824387    4.13212020171863   -0.02821051785163
H         5.67110659942993    4.90456547476579   -0.50411656177083
C         5.44518418108871    2.87340876200898    0.33351566757554
H         6.36749761633077    2.34662702923829    0.20764318038839
C         4.19859803255401    1.02959492988940    1.46327818209238
C         2.71130274801378   -0.54240289992512    2.19573757515185
H         1.66777412625014   -0.79029155736950    2.32738253382627
C         3.73210972976830   -1.40020011091927    2.57668703969350
H         3.50602045490017   -2.35529939686916    3.02154040105377
C         5.04152148575269   -0.99159326545616    2.37955659164349
H         5.86532109094436   -1.62457224806401    2.67321126940755
C         5.29208501913933    0.24853569156719    1.81184536877132
H         6.30171044479362    0.59807620454313    1.67194569881643
C         3.05652717390967    5.52367691129481    0.13771881671592
C         2.99927688281605    6.45451852786459    1.17388694099563
C         2.24497470393254    7.60184159161625    0.97368359319135
H         2.17998236273295    8.32799162405225    1.77047059782145
C         1.57375506202390    7.83100612126008   -0.21805618091828
C         1.68960046323987    6.90003981955753   -1.24232561187558
H         1.18454089067673    7.07916688483290   -2.17985775687198
C         2.42999438691957    5.73867952782439   -1.09024612407863
C         3.74544415807292    6.23377181041943    2.45148378510199
H         3.35695295778904    5.36942557093245    2.98942741487981
H         3.65739047544750    7.10336096467370    3.09613860496319
H         4.80270229032777    6.05243238331562    2.25663696002356
C         0.75371018244239    9.06703873374949   -0.41896824951936
H         1.20171434229050    9.69544565023649   -1.18822351827729
H         0.68124352395755    9.64219819088955    0.49995800576712
H        -0.24971009847686    8.80383272740955   -0.74826375201714
C         2.54180930497116    4.74337254115415   -2.20011140453036
H         3.57588566402687    4.44112931719800   -2.36183899108634
H         2.15184419803168    5.16158257844495   -3.12343703597533
H         1.96056519041995    3.85411852721927   -1.95299624928932

