43
CSD_code = OLUVUO | q = 0 | S = 0 | Stoichiometry = C20H16BrCoN2O3 | MND = 6
Br       -0.37302492264670   -0.57989808140528    5.93006510062606
Co        1.23368799716768    1.08129088857600    6.12400399101469
O         1.19165980087184    1.47270138239953    4.28879744743856
O        -0.04831654499646    2.43465750698045    6.34272232973429
O         2.68778792849506    2.79355289359595    6.20241163051414
N         1.38685365517763    0.79819646869829    7.96369238005453
N         2.61859346690435   -0.15577602199063    5.92526712860197
C         0.52459658409664    1.17764122260616    8.86605381643638
H         0.64329374201791    0.82436030006336    9.88811918228469
C         2.47080048131362   -0.01491085981848    8.27278782342001
C         1.63252141520408    0.74728595151436    3.33024454923301
C         2.97909005563114   -0.72120664012039    4.80624174922633
H         3.69690512768545   -1.53799598637721    4.83733291044851
C        -0.57760439145894    2.02655348661491    8.63825052869694
C         3.14813555248632   -0.53999310254668    7.15154834740419
C        -0.80264412972928    2.63162458764626    7.35855627364537
C         2.93052823520367   -0.31347877340371    9.55358420236032
H         2.44732418037717    0.10048218040626   10.42459578302837
C         2.51599107071523   -0.36474151718254    3.52341155061320
C         2.95783511727194   -1.09909727038821    2.40159715858034
H         3.61211786847820   -1.94347565194375    2.56776829398208
C         1.27034174378386    1.07105341981336    1.99680040362016
H         0.60725871304771    1.91098449923719    1.85705364701812
C        -1.46032559469787    2.31202775502540    9.70226319309429
H        -1.28378085858572    1.83477733532173   10.65601359124272
C        -1.90007669054444    3.52361566828505    7.24070237876477
H        -2.06261628121102    3.97922421201591    6.27600704494083
C         2.57167186925406   -0.76434179576351    1.13495953874550
H         2.91249096578456   -1.33765058835717    0.28690947716798
C         1.72135776067800    0.33413037770960    0.93866794297147
H         1.41563970077332    0.59469655769980   -0.06422718484481
C         4.03632566000003   -1.12346627580943    9.72201644452625
H         4.38931306401442   -1.34325233644530   10.71785500146614
C        -2.51657205681818    3.16304042790528    9.54161818225260
H        -3.18704748963987    3.36771109584294   10.36163547943366
C         4.26602896873034   -1.34917787822715    7.34255246877356
H         4.81738134141535   -1.73776644826787    6.50078060374919
C        -2.73027669427581    3.77296686676354    8.29649471658320
H        -3.56773325492465    4.44410835166858    8.17214531637574
C         4.70158590315949   -1.63949326034894    8.62053508146819
H         5.57275551939165   -2.26134960387034    8.75825661759723
H         2.87300650589082    2.94042228256865    5.26700331042782
H         2.10903891450639    3.51886637331056    6.46860456728177

