36
CSD_code = OXETUI | q = 0 | S = 0 | Stoichiometry = C17H13ClN2OPdS | MND = 4
Pd        8.42197882100591    2.94351196695930    2.50508719893911
Cl        9.85708696417685    1.50919086631589    1.53134373893748
S         7.09434734260649    1.31676559162853    3.42951139557744
O         5.37203168526666    4.65610843459053    4.73565598676172
N         7.25818785656046    4.27106391334306    3.47103576970572
N         9.30015932763572    4.56259141660451    1.80145900127001
C        10.32863488848993    4.64542073516913    0.98456286798848
H        10.77043157304353    3.71201376616888    0.65541784370868
C        10.84494779166286    5.87544908315487    0.55509207529153
H        11.69105194351460    5.88373352266348   -0.11311156982484
C        10.26793113326033    7.03780035347127    0.99099762499430
H        10.64244761709213    8.00139320662299    0.67803776484818
C         8.50761202011589    8.12005729834943    2.36688728062862
H         8.85726210255040    9.09646541149691    2.06856512479601
C         7.44232828345846    7.97856645665655    3.21857191046349
H         6.94050504739717    8.85514855260289    3.60024611355188
C         6.98111206268892    6.72190352036320    3.61465690657485
H         6.14313443046057    6.64088365648209    4.28699672779434
C         7.59536992908549    5.56946408685620    3.15027508132768
C         8.70269400267298    5.69571584456024    2.25935753279951
C         9.16455815587034    6.98044763152180    1.86735564000373
C         6.21081001503088    3.92652149975938    4.23323318886866
C         6.09297608948160    2.40891476141700    4.48691756415520
H         5.04747359973723    2.10014794609076    4.42553428641956
H         6.44334856965273    2.21298082954240    5.50380193771358
C         6.39468269876305    1.55006403290927    1.78211646529778
C         6.80859000933201    0.64401463993288    0.80349889143459
H         7.52457434747462   -0.12379700874933    1.05876093035137
C         6.30365114957298    0.73874133153793   -0.47973856335612
H         6.63640694667782    0.04127610773823   -1.23263685516472
C         5.37384639898960    1.71738969045975   -0.79537422852371
H         4.97999147138404    1.78903741910376   -1.79742707578950
C         4.94607231859758    2.59850711718811    0.18162107207444
H         4.21314226301479    3.35614521757091   -0.05180358950948
C         5.44585305237540    2.52331446609902    1.47385652222184
H         5.06556809129327    3.20414663381710    2.22213743767645

