67
CSD_code = PABKIP | q = 0 | S = 0 | Stoichiometry = C37H26CuIN2 | MND = 3
I         3.46530150748608    2.80755156296089    4.57620496891052
Cu        3.66025370410311    0.35926426902512    4.42055859614628
C         5.58918143670547    1.16424574156726    9.51332611205881
C         6.48593395577416    1.55197308572709   10.54055751068932
C         5.09959667071412   -0.06008928728569    7.45795670099213
C         4.70236058492725    2.86115895230606   11.58601264348124
H         4.38306775101562    3.51153359912668   12.38776799808283
C         6.04930649405568    2.39819204475777   11.59093469098672
C         6.02507042576012    0.31247892105630    8.46396975072611
C         3.36846063211064    1.25199036764345    8.53464613234190
H         2.35137852277835    1.61346433764449    8.55524275243142
C         4.25489850075205    1.64330608419321    9.54360760056694
C         3.78420471997343    0.41967373274881    7.52749328862457
H         3.08236106006723    0.10032413842563    6.77005981338715
C         7.38865729842305   -0.09850069826099    8.46622514838702
H         7.75903373456385   -0.71432413594533    7.66112787670077
C         3.84524856537061    2.50061120296215   10.60183788840663
H         2.82606497551382    2.85879722895235   10.59687705840766
C         7.82695343868235    1.09839794434625   10.52643909542410
C         6.94935063821786    2.75591351898134   12.59679100298376
H         6.61306413571603    3.39897252714820   13.39738524043817
C         8.25469607024502    2.29970591330027   12.57584830093237
H         8.93619902742220    2.58735260594443   13.36315908617283
C         8.24496023827560    0.26876020220254    9.45036775995557
H         9.27409401583243   -0.06152402551789    9.42993730350032
C         8.69407855626019    1.48198884397857   11.55193434289660
H         9.71641036175786    1.13230938075384   11.53536485137165
N         4.79759618326554   -1.01390511673289    5.28196802024418
N         3.23496070976157   -1.11572603236960    3.10075489433481
C         5.22036120484288   -1.92551956935669    4.24488977867518
H         5.67150614313025   -2.83139622058796    4.67959056165568
C         3.96046332273251   -2.30803079843047    3.44871296913509
H         3.31001614114867   -2.91552726924710    4.09017910312659
H         4.23643948368933   -2.90119949720183    2.56467800197152
C         1.44025171324758    2.36182366906296   -1.55067322598057
C         1.40557449082219    1.84413208755592   -0.23163061760974
C         0.63809753310937    3.47624284412405   -1.90333969566016
C         2.20854357747694    0.72787318467407    0.12121755700443
C         0.56813640522045    2.46002136810692    0.73277087539894
C        -0.18894979395289    4.07030879459027   -0.90717136883455
H        -0.78990258042392    4.92410684635376   -1.18584885097835
C         2.27866276004913    1.77218486263506   -2.52733519101513
C         2.15071699128989    0.23828822085286    1.44839813235136
C        -0.21877818380640    3.58338531779091    0.35579927319698
H        -0.84067823746336    4.04113737323301    1.11109966066463
C         0.68384089581402    3.96136637175777   -3.21182224738363
H         0.07059659183267    4.81009245935862   -3.47862398829490
C         2.29359798412896    2.29007183393117   -3.82429441047225
H         2.93537545376185    1.83553660842537   -4.56548751852785
C         1.30279559845219    0.86176421809361    2.37360910711622
H         1.24951642374287    0.45595470680157    3.37320037811694
C         0.53157054513105    1.94363343443010    2.03199149138135
H        -0.10386015848580    2.41077692920777    2.76887714327964
C         5.46563514270778   -0.92989747835768    6.37166720011621
H         6.35094745823029   -1.55827176314945    6.49867193475303
C         3.06222231827063    0.17977348793434   -0.87851694091826
H         3.71144268665878   -0.64513014807899   -0.62727247510161
C         3.09016862325050    0.67037240826216   -2.14140025711605
H         3.74304242513328    0.23210160946962   -2.88332097274643
C         1.50096633374590    3.37161460495937   -4.15903034128194
H         1.52263646979089    3.76140151799894   -5.16637925107070
C         6.24874319701290   -1.24675497094836    3.33493023024057
H         6.55589861386041   -1.92605442528556    2.54283463045109
H         7.12637141855848   -0.95639620858806    3.90910503029450
H         5.82231415387997   -0.35020309326977    2.88678493594640
C         2.93176568462029   -0.89344401579725    1.87574145625265
H         3.26050725322125   -1.60273621097399    1.10994147225841

