57
CSD_code = PADWOJ | q = 0 | S = 0 | Stoichiometry = C26H27BrN2Pt | MND = 4
Pt        7.62625530917662    1.23409319377033    4.46605391452558
Br        8.65218333203034    2.48187256499861    2.65560549217005
N         9.14097333890782    1.20998735939406    5.83483442166536
N         5.77666949409600    0.86391583186405    3.68836855480165
C         6.79960965680323    0.27646320182924    5.91659381971446
C         7.54043298767626    0.06104916833731    7.08202686817986
C         6.92872816747923   -0.61978933737655    8.13364470750380
H         7.45548181879412   -0.81409825659856    9.05703552411955
C         5.61614446328679   -1.05215042237773    7.98602888887397
H         5.14778949094735   -1.57872993683183    8.80517897723194
C         4.88161104465777   -0.83181809085097    6.82694152422142
H         3.86237804429295   -1.18552951795374    6.76400022525804
C         5.47820463429195   -0.15323906887372    5.76518749132263
C         8.87773272000133    0.61446732413074    6.96135128722608
C         9.87310675642891    0.48272715811311    8.06721582603922
H        10.82454961936194    0.93799796493050    7.80093490322275
H        10.03111043390623   -0.57158176248174    8.29312339645919
H         9.48745421762317    0.95839803454306    8.96861265798614
C        10.39460388108344    1.78480804282966    5.54997353016510
C        11.33410699869811    1.03369964480011    4.83803414501533
C        12.54612501969816    1.62338783840699    4.51751336878705
H        13.27916404188008    1.05594991872645    3.96359987348787
C        12.81299350753713    2.93043159166512    4.88402551987297
H        13.76034804498986    3.37881036153218    4.62571021077862
C        11.85800438403164    3.67539199256086    5.55281995427550
H        12.05594496111289    4.70661620420635    5.80533405178232
C        10.63454098675395    3.11893843741475    5.88957657623897
C        10.98248580638143   -0.35843720261927    4.41303919166067
H        10.93630313719438   -1.03253361475966    5.26953725656263
H        11.71013402026296   -0.74169523670858    3.70334224548068
H         9.99343527556233   -0.35616663709524    3.93795348108268
C         9.55301345502088    3.91090582553818    6.55806085836500
H         9.39383698529268    3.57546105170411    7.58368186877335
H         8.61298055270966    3.77724985689746    6.01373182022367
H         9.80213206140733    4.96826789376815    6.57137551396236
C         4.95561367098900    0.21428145304793    4.46106258310341
C         3.56285389491194   -0.14209217521640    4.05502890307943
H         3.34307484008410    0.20488604914829    3.04798195860339
H         2.85223818964104    0.30318581577937    4.75066209974221
H         3.43352441588576   -1.22310103530322    4.09848390250744
C         5.42628248162833    1.29300240441382    2.39356628734631
C         5.70414050204140    0.46493529471906    1.30272208337584
C         5.39780251592602    0.92258835707631    0.03135086370145
H         5.61140403504497    0.29505579888081   -0.82118244732896
C         4.84133724523732    2.17588374094685   -0.15216482829130
H         4.60960239523276    2.52060819766165   -1.14855409382037
C         4.61028232895340    3.00166953723644    0.93360359436115
H         4.21017847487510    3.99344486569679    0.78335765379082
C         4.90469505299647    2.57782341918507    2.21942059439606
C         6.36077526216648   -0.85996705812749    1.54116637775414
H         7.22525687847678   -0.72478632553959    2.20085356994285
H         6.69897333016406   -1.29737293197105    0.60606587932388
H         5.67777303294196   -1.55704550822167    2.02853671650806
C         4.72646576489651    3.46182210813703    3.41502652173676
H         3.91292918513537    3.10849643106958    4.05013454363618
H         4.51597824908075    4.48345903486320    3.11167394620243
H         5.64394960431233    3.45420114908533    4.01405534329372

