40
CSD_code = PAKVEC | q = 0 | S = 0 | Stoichiometry = C13H21IN4Pt | MND = 6
Pt       -0.92175094152382    5.58235872447815   10.68655127163216
I        -2.64195869083048    3.74717711566238    9.62044224320062
C        -0.33380278553512    6.40564045614566    8.89782846722481
C         0.63045378201540    4.25252366696756   10.50637457053757
C         0.31381769064926    6.98199233594600   11.57367360233732
N        -2.57212677750431    4.42800975778589   13.40213676287650
N        -1.40995873446740    4.70775105131853   12.81289000963672
C        -0.47073566900938    4.11828548411675   13.53955112050886
C        -1.04099522196162    3.44602227895530   14.62088108767304
C        -2.39200326177980    3.67472082260374   14.49922372465443
C        -3.81604450527473    5.01584990973157   12.97682040923304
N        -3.29456411147441    7.72583380868221   11.74689926502933
N        -2.71975268366799    7.05364472135952   10.74947798347307
C        -3.31410810349798    7.45004936451075    9.63524655314983
C        -4.29796525622248    8.39925507969072    9.92020997479306
C        -4.26039194726063    8.54210595609715   11.28690098582495
C        -3.02095895497463    7.42389692300700   13.12814221908465
C        -3.98982488225158    6.37135481045860   13.61585170995095
C        -4.92031326960319    6.62392688363606   14.52022505098171
H        -0.84037708804108    5.88394517032283    8.08473470075204
H         0.74121827304826    6.33544429582471    8.73425219076923
H        -0.61259798573437    7.46111803379217    8.87942276542070
H         0.78449506602266    4.00105058590586    9.45563009073432
H         0.33756536402147    3.33997112716770   11.03032843128720
H         1.56996199253019    4.62098588403897   10.91869616783804
H         0.48210163648057    6.71317432053382   12.61922660007395
H        -0.16554400966726    7.96371271913034   11.54391847327153
H         1.28793751946358    7.08172640595183   11.09874836845959
H         0.56616103644058    4.19375425735705   13.27861734469368
H        -0.53673797080285    2.87456796082867   15.37156854792414
H        -3.21779622527966    3.35318784494479   15.10050973489052
H        -3.79569060518793    5.10214474618005   11.88489432099166
H        -4.63217689629909    4.34726165314811   13.25503137725636
H        -3.04412527156165    7.04221170540604    8.68145654714537
H        -4.93844084969835    8.89991096437870    9.22513764083284
H        -4.83908097196845    9.15321389860364   11.94947016390361
H        -1.99271174591340    7.05340710555376   13.19144357715655
H        -3.11127085162343    8.33787194487170   13.71929622884173
H        -5.61083143020164    5.86714998914030   14.85059340010459
H        -5.03187466185092    7.59699023576243   14.96779631586057

