67
CSD_code = PAPSIL | q = 0 | S = 0 | Stoichiometry = C30H29Cl2NO3PRe | MND = 6
Re        4.61198874563927    7.76888490587358   10.20988931390975
Cl        3.05700007298696    8.47563203636596    8.54097316076930
P         2.82642726103762    6.75850229313789   11.50806645765280
Cl        6.10952809091591    7.38666162429447   12.02869041279455
O         4.26940382440471    9.36143187468483   11.01184707342294
O         4.95531872622343    6.33374378384451    9.46124392456609
N         6.20183379350755    8.92059083706834    9.19631521779393
C         2.12218173142901    8.02250888195505   12.58568942885560
C         0.19226900398235    5.90226100278406   11.07812524480473
H        -0.03206274742594    6.29994259266248   12.05829056574981
C         4.07140221479045   11.48566093768739   12.01347602531887
H         3.22530031956639   11.14010402121533   12.58812605753331
C         3.31296896213120    5.36163700758394   12.55792131929616
C         2.71685098354194    8.27935511086571   13.81919830183684
H         3.55059862539901    7.67361909764546   14.14700257532256
C         4.53922290868597   12.77371566025473   12.13333764851322
H         4.05295235880615   13.45600493750996   12.81466789728738
C         1.47310538292116    6.02412995520260   10.54963705499895
C         1.76704590380768    5.49644652295524    9.29664386002054
H         2.77075065585280    5.59660619386796    8.90231564549526
C         4.69095260690235   10.58086743010177   11.13674550856845
C         5.80317634804760   11.01722731435465   10.36567291348589
C         6.92097259279529    8.20485131701947    8.15462230166137
H         6.78268413387115    7.13800753312547    8.37568282126465
C         5.63164652130696   13.20431209122626   11.38496753039050
H         5.99110300903168   14.21643370541977   11.48719556655954
C         6.24835335413079   12.33569416966598   10.51396753922332
H         7.09556598261406   12.66543212173901    9.92900639761318
C         6.46540172971816   10.15217639807246    9.42764756892757
H         7.26668768513020   10.63750717973051    8.86915705040881
O         8.38444387185836    7.88014365197779    5.71066434532175
C         2.24761869540290    9.31805874707509   14.60281179972458
H         2.70549427249796    9.51778860266598   15.56035653608210
C         0.77304834573367    4.87347036350090    8.56439998050015
H         0.99600197409331    4.47457395717900    7.58659433026603
C        -0.79560333124272    5.27818730043790   10.33839288897576
H        -1.79346810857921    5.19069741638491   10.74263334831641
C         8.42557303714566    8.47407316236375    8.06727877918905
H         8.91007188082670    8.23880932695321    9.01551493547674
H         8.63065592892708    9.51335869151870    7.80608113204498
C         0.63577992693653    9.87929601247020   12.90906322597352
H        -0.15994266156260   10.51520178914993   12.54989838693702
C         1.20173499988230   10.11063175210442   14.15382252147747
H         0.83897080255587   10.92212419294794   14.76774307597854
C         6.28567284739464    8.49623148587611    6.78783369112354
H         5.22167985686616    8.25737396891642    6.81351149848429
H         6.40368542423570    9.55606159487783    6.55039115717073
C        -0.50777580672815    4.76840570705774    9.08236849872154
H        -1.28538344917574    4.28824703391445    8.50702037695602
C         1.09846680694110    8.84296610069664   12.11795162023913
H         0.68217093498472    8.67188791013946   11.13463500077808
C         6.99344948181308    7.64749964875755    5.73141382742341
H         6.79434355489591    6.58314769586667    5.92801194132441
H         6.63640539986718    7.89871029002086    4.73103139427907
C         2.60045323780094    5.04522512523417   13.70992686805542
H         1.77643817504080    5.66867061354774   14.02862613664363
C         8.98771760598616    7.59083871922269    6.94879451423677
H        10.05512479038959    7.77496311869288    6.80983443032486
H         8.83698993262253    6.53092648396438    7.20590123105737
C         2.95908323115304    3.93510440632685   14.45252244807754
H         2.41326773432522    3.69314695151905   15.35274004307271
C         4.36302911200947    4.55154028900998   12.13950598253026
H         4.90572943030265    4.81196889323344   11.23929159889189
C         4.01604546850932    3.13703469042099   14.04508526337369
H         4.29542938328100    2.27517727250084   14.63284640102186
C         4.71413881582972    3.44288879627390   12.88792316364758
H         5.53672761543812    2.81961969926656   12.57185524230368

