59
CSD_code = PECHIO | q = 0 | S = 0 | Stoichiometry = C27H23ClN3O3PPd | MND = 4
Pd        2.51320607906421    3.00012355103213    1.76095218351814
P         3.48853285277910    2.46015461931082    3.68854126967984
Cl        1.21929751040685    1.10618628503797    1.93472777174142
O         0.77835533268060    4.26444876763648   -2.65658527917485
N         2.35732068596355    4.60308802179147   -0.56697506613320
N         1.75941003160456    3.53795194464718   -0.06288014105884
C         3.61450257514992    4.66315785861051    1.44654928538141
C         4.58346268438708    5.30251472606716    2.19973932284878
C         5.24998877661805    6.42703732315474    1.71380144732924
C         4.95873419467897    6.95989804789148    0.46019706270296
C         3.98905408237119    6.35749123842438   -0.30942830572672
C         3.33344827609153    5.22640370637749    0.18052954790872
C         0.82452044774226    2.91547188567090   -0.71996384755559
C         0.34061732433745    3.29772274191531   -2.03958198235085
C        -0.74055273251813    2.41196441722515   -2.59118993894875
C         3.13500369623019    0.88234199137207    4.51511227614315
C         1.90032408845880    0.75613836383935    5.14784033302650
C         1.55543272140594   -0.43347212641760    5.75759456146539
C         2.43776595063495   -1.50312964657123    5.73710696211217
C         3.66263288667811   -1.38166003419562    5.10352231340226
C         4.01428732477717   -0.19292352534758    4.48721912543632
C         3.18360599766516    3.65331715405590    5.02208314693345
C         3.66857930961391    3.47302981303725    6.31349379126162
C         3.39245165360172    4.41630956067785    7.28651061854098
C         2.62004119839790    5.52618101555862    6.98190337279967
C         2.10459135732638    5.68919259157127    5.70584246447040
C         2.38315367183561    4.75308758425295    4.72697869356115
C         5.27324344610146    2.37880868928046    3.33692482750351
C         5.58158699810639    1.92870885864979    2.05242677490026
C         6.89867049062316    1.84068233508767    1.64538272372301
C         7.91311295141929    2.21912276883708    2.51277775634008
C         7.60895606185547    2.67959077244524    3.78256395944133
C         6.29107633995869    2.75756070912232    4.20124422440677
N         6.25806658882218    7.03719220377025    2.52402674084888
O         6.80952444931258    8.03317312582457    2.09659401191931
O         6.51479181816158    6.52430131054281    3.59828899037465
H         2.06062654546739    4.92886918639776   -1.49518486954386
H         4.85121912798328    4.95361204413243    3.18866007349262
H         5.49400027959697    7.83055461017014    0.11562972679049
H         3.73622337129706    6.74768890113562   -1.28382042786001
H         0.39606196925811    2.04944634135478   -0.22883954528221
H        -1.04457413640861    2.76020435022171   -3.57449528413169
H        -1.59598728385103    2.41621529026179   -1.91833240969948
H        -0.37561063889353    1.38883907664255   -2.65930679890730
H         1.21337635843847    1.59311791829394    5.14006699452097
H         0.59546730808798   -0.53274402073520    6.24199988166699
H         2.16540103873473   -2.43527041949333    6.20952413030747
H         4.34607027193221   -2.21787265106633    5.08204201826445
H         4.96692007768652   -0.10100328700646    3.98384154768413
H         4.24442205075264    2.58994387802265    6.55476025753355
H         3.77641648125869    4.28452425051576    8.28722310001215
H         2.40985119879364    6.26011726526678    7.74531578819476
H         1.48611398689578    6.54435780162862    5.47755418792110
H         1.97773622722888    4.85429047588255    3.71651054308874
H         4.76339336348542    1.65095671477148    1.37590349593305
H         7.13841688182083    1.48953449605981    0.65261547338451
H         8.94257321851955    2.16403944582631    2.19203176591715
H         8.39955982265673    2.98965068999461    4.44872601825817
H         6.05942535691134    3.13715899153288    5.18490333368578

