47
CSD_code = PESFAU | q = 0 | S = 0 | Stoichiometry = C28H16Cl2Zr | MND = 12
Zr       -0.60553881544067    0.36776063362526    4.27555451697847
Cl       -0.88142059367219   -0.57030264310173    2.17501172902879
C         0.72002789496302    2.30405905723903    4.49359159671884
C         1.26096856255789    1.32816266689338    5.37985034820477
C         1.00828597499230    1.10734455335825    6.78367915124648
C         0.13052536038420    1.92850697389152    7.46169374319357
C         1.72704878448273    0.04243576498034    7.39096337138714
C         2.53485749135956   -0.79902786776899    6.66157926079658
C         2.65496880145579   -0.69335566346065    5.27170209712813
C         1.99128540612418    0.33895261837779    4.62234802766783
C         1.85013846802932    0.69214647723435    3.22327798672994
C         2.31209674128669    0.08976627168837    2.05305796344163
C         1.99012031116274    0.66324620290788    0.83903553617534
C         1.21967054729772    1.82775739834311    0.76720334552331
C         0.76171568026181    2.45801877437147    1.90452585340934
C         1.07612832464790    1.90281135842239    3.15422321719175
H         0.40529076051349    3.30093957326318    4.77633262263919
H         1.60041404436588   -0.11212224460647    8.45167612146686
H         3.05444793097046   -1.59805325085056    7.16818120154414
H         3.23374391000133   -1.41727209758796    4.71713368518801
H         2.90216684539593   -0.81481167989800    2.09861761662665
H         2.32947907313081    0.20134948427160   -0.07516166023336
H         0.97727564331262    2.23733377249286   -0.20134533480807
H         0.17127437023385    3.36334879212216    1.83861714566621
Cl       -0.30664301055648   -1.74261059962903    5.20465146461745
C        -2.16221133615292    2.37961935198758    4.66442481193877
C        -2.81689402839029    1.33159264744323    3.98772415883171
C        -2.91066103550256    0.17982463846152    4.86983447880712
C        -2.24669974020770    0.56383236534613    6.10448889055626
C        -1.83537880133420    1.91925436507802    5.97083467572313
H        -2.08443578805403    3.39796785366061    4.30335732433286
C        -3.36764712803973    1.28599901614180    2.63851177758630
C        -3.53247135532242   -0.98818210883449    4.44053494316255
C        -2.18862457591916   -0.11902737872209    7.36479778924758
C        -1.11921206650111    2.59876546612118    7.05916781777889
C        -3.17383440828502    2.30259747037703    1.79611502931783
C        -4.05522393943595    0.05989388661006    2.30101363399963
C        -4.10591477736523   -1.00304773562589    3.15644695301923
H        -3.59385421899386   -1.85920919919164    5.07867863278003
C        -1.66938113058473    0.48462340454617    8.45343240464644
H        -2.64208123686978   -1.09736565850756    7.44178869556309
C        -1.00205503896616    1.78973632738953    8.38718076054198
H        -1.22078830773608    3.67584392073387    7.13980662089814
H        -4.49215051675746    0.00161231162827    1.31748745999398
H        -4.61205564781532   -1.89968512477007    2.82907979441854
H        -1.71163089525693    0.00360065527311    9.41863658309627
H        -0.99892253372317    2.37196919830267    9.30165615621001

