47
CSD_code = PEWJOR | q = 0 | S = 0 | Stoichiometry = C24H19ClHgNP | MND = 3
Hg        4.17443874106384    8.17299238898015    1.03554395678831
P         2.63798091893796   10.33371452570796    2.75271066475243
Cl        6.12141411866559    7.16077733542169    1.79785838099411
N         4.06389313052350   10.36892336758386    2.05287799603773
C         1.51510452160115    9.48635489852514    1.60614225377439
C         2.01009730886937    8.45911902508575    0.79615743266597
C         1.10096150478989    7.80211983142040   -0.03229799296174
H         1.43748995529015    7.00600041292672   -0.68444240520661
C        -0.24431798627272    8.14181047088752   -0.03135049447769
H        -0.92825257808209    7.61310223405876   -0.67957406157440
C        -0.71546208696182    9.15007481594860    0.79265262944865
H        -1.76335978527905    9.41256389055598    0.78930475677983
C         0.16504221723582    9.82299786906077    1.61808286026879
H        -0.18575090393832   10.62249166430011    2.25886830033624
C         1.91480134555653   11.97446854566941    3.03460485496562
C         1.56792217846099   12.48779640449994    4.27682339192174
H         1.66864321661304   11.87796217831076    5.16471726987544
C         1.09410767222457   13.78524228709354    4.36680505464687
H         0.82088088604644   14.19023132385017    5.33014143424960
C         0.97437894053650   14.56517730883231    3.22792005919708
H         0.60514654364599   15.57684224625471    3.30672884747988
C         1.33310952665021   14.05504048789285    1.98906877705390
H         1.24474090173390   14.66781854222015    1.10432192028894
C         1.80747892359924   12.76134093249438    1.89185299425837
H         2.10298263554135   12.33727351289930    0.93987680181085
C         2.52685481629059    9.36824703216752    4.29141572489551
C         3.66614149294178    8.70879164891325    4.74033554557598
H         4.60591823342000    8.84088355523714    4.21799064883789
C         3.59454795619614    7.89779438650367    5.85892785127411
H         4.47951138536114    7.38778370288140    6.20817697505382
C         2.38889916403384    7.73927449893771    6.52281305647655
H         2.33324499862423    7.10442684529897    7.39458879237208
C         1.24969714609277    8.38616642065032    6.06784517662357
H         0.30972745014849    8.25299200286532    6.58332425298560
C         1.31231652972272    9.19609457298689    4.94959003078656
H         0.42553772965283    9.69285475084052    4.58062634580328
C         5.17767468066388   11.01242313837185    2.58674263392832
C         6.36840433493015   10.96869397739755    1.86016318347668
H         6.38562808770999   10.43125889980841    0.91648420911841
C         7.50356083207876   11.58671053758768    2.34251783358333
H         8.42031116530626   11.53714842406981    1.77369169029742
C         7.47289027721560   12.26558355051837    3.55093534749488
H         8.36283049874046   12.74771331676975    3.92623571083150
C         6.29551329880299   12.31517359017868    4.27725577089572
H         6.26140615607779   12.83601663057275    5.22353274679003
C         5.15772760032751   11.69373672947255    3.80121623219055
H         4.23328431862032   11.71369528748437    4.36999455735158

