56
CSD_code = PICNEU | q = 0 | S = 0 | Stoichiometry = C31H22Cl2Hf | MND = 12
Hf        1.79718707979748   11.40814979562815   11.64167910970928
Cl        2.13900794457882    9.75095595894201   13.18985109392011
C         2.49997917457878   11.40826007044281    9.39526768765126
C         3.11955860203152   10.25036583010202    9.98605507783027
C         2.89586809839290    8.86064309172911    9.85469372993051
C         3.70026970776836    7.98108903796526   10.53896160514414
C         4.74086675371961    8.41908277832154   11.36824847898455
C         4.98041055263509    9.76218142379920   11.54300351445912
C         4.16969096020154   10.68945297200723   10.88099839412092
C         1.15452639682581   11.40826415339376    8.67365122108594
C         0.95525457348558   12.59349172234400    7.74105861433349
C         2.01393675142690   13.07212309908513    6.97749263513596
C         1.81856199719205   14.09934842176014    6.07278449782253
C         0.56024765890307   14.65364055345283    5.90895136545122
C        -0.50299778723222   14.16561692769012    6.64829423477248
C        -0.30919660423677   13.13625935811321    7.55269179733236
C         0.21720515007175   11.40827250913943    9.87475996016870
C        -0.07912943170273   10.26208275150834   10.66388602867155
C        -0.63825852483675   12.11138429318772   11.88829981985991
H         2.12682019816004    8.48393138756126    9.19652358861575
H         3.52813057277892    6.92049914209128   10.43410730655954
H         5.35198239662036    7.69101812083862   11.87781266438444
H         5.77927831610019   10.10368921064739   12.18539355490383
H         2.99920668339759   12.64896349251770    7.10194231175158
H         2.65233524700449   14.46702524826268    5.49340899355794
H         0.40826801699125   15.45724351028286    5.20404980939779
H        -1.49015218897942   14.58413623173057    6.51896369772676
H        -1.14720340584795   12.75307244767919    8.11512735724016
H        -0.04495032643334    9.23326262456895   10.33198571245542
H        -1.08367491081582   12.74633627157318   12.64066592637707
Cl        2.13957828924610   13.06539154490787   13.19033836505953
C         3.11951050294585   12.56616009528382    9.98609658515764
C         4.16964592688147   12.12709461888028   10.88103274976779
C        -0.07900280795675   12.55444159962393   10.66395545083221
C        -0.63834891186850   10.70513362006568   11.88824709622461
C         0.95522967184082   10.22302805001019    7.74107818159289
C         2.89578111832163   13.95587708472292    9.85473995725928
C         4.98032544841320   13.05438237006161   11.54306986407283
H        -0.04473084175595   13.58327441136650   10.33210001727562
H        -1.08381127278374   10.07018268817287   12.64058846287823
C         2.01390011015560    9.74435649711802    6.97752193224431
C        -0.30923372345762    9.68028160681441    7.55272610738529
C         3.70014290176996   14.83544911290184   10.53903473296003
H         2.12674884930407   14.33257268018764    9.19653828492469
C         4.74073710325848   14.39747511662964   11.36833452731902
H         5.77922620359125   12.71289047491152   12.18542838322461
C         1.81850719220560    8.71710037915364    6.07285246224762
H         2.99917843546298   10.16750198168380    7.10195545197104
C        -0.50305296642224    8.65089357989081    6.64836756910889
H        -1.14723475596032   10.06350401123806    8.11514551972267
H         3.52798749035027   15.89603781540382   10.43417057801391
H         5.35184922153521   15.12555239397311   11.87789013254096
C         0.56018407886902    8.16281937493756    5.90904627173070
H         2.65227440560651    8.34938652961574    5.49349165731260
H        -1.49021460603234    8.23238529109258    6.51905666208221
H         0.40819328390224    7.35918463498641    5.20418320773599

