47
CSD_code = PIDRUP | q = 0 | S = 0 | Stoichiometry = C16H23BrOP2S3W | MND = 7
W         4.67936998877998    4.11078997039697    6.27931527504299
Br        4.24097374978249    5.65166030572868    4.31898516267140
S         2.39102652843568    3.13191435387422    5.77901750434190
S         3.30947164967142    1.40491897174289    8.07061893421409
S         0.72251435149092    0.90050858523345    6.73579476271405
P         5.53699782509332    2.59377799469107    4.53523394008833
P         3.49360026815521    5.84924210746964    7.55869619780541
O         7.52697353792193    5.31424888705634    6.69469187619784
C         5.57400262480658    3.19097562233740    7.95853837778083
C         6.64000114591080    3.06610444581394    8.91279581405480
C         7.21767062881427    4.18454301061614    9.51957943232290
C         8.23585214616337    4.03066149999405   10.43970917383935
C         8.70205893733705    2.76604491216191   10.76135411651404
C         8.13324120474158    1.64919481216419   10.16905461378021
C         7.10673987307822    1.79242208662281    9.25802886968629
C         4.44186603733426    2.58890824304101    7.64759933101390
C         2.06976980564110    1.82122563337309    6.80019599875498
C         6.45201101157383    4.94422608186953    6.49831788567856
C         1.81819203659614    6.30394240936886    6.99297072262849
C         3.20815613735909    5.41923845612115    9.31414666613052
C         4.29996178620133    7.48759792731181    7.65380640176186
C         4.37649484743723    2.07995563149689    3.22399392459598
C         6.15762885635435    0.99486463746529    5.17230774927396
C         6.95114314641935    3.21148611631347    3.55449673713659
H         6.84759020345459    5.17116204751533    9.27636457605831
H         8.67132975324002    4.90165149035004   10.90662083524492
H         9.50320223002412    2.65044931076187   11.47558953525111
H         8.48880764419272    0.66170358651094   10.42366443271242
H         6.65434699916163    0.92492752962358    8.79834726215463
H         1.39746234004532    7.06903322664447    7.64612829108854
H         1.87638300234420    6.68152579187557    5.97074237962962
H         1.17836187359710    5.42104706273118    7.00036484134770
H         2.68996845650004    6.23126672702306    9.82502065201878
H         2.59935979215730    4.51515280939854    9.36255040396431
H         4.16221659840084    5.22316717375107    9.80397038682476
H         5.28247851465983    7.38514125984751    8.11293681919715
H         4.42468363867470    7.87266997087954    6.64076586902822
H         3.69220423512080    8.18036563818688    8.23582404436696
H         3.99189075482571    2.96941035699219    2.72192760060744
H         4.88619479262553    1.44023776672481    2.50294350292200
H         3.53799758167094    1.54146745016917    3.66575837601607
H         5.34489413173705    0.46922787498225    5.67525539528876
H         6.53296810824747    0.38015080746264    4.35373105507042
H         6.95672084646213    1.18136937625868    5.89102882773090
H         7.78338495503019    3.43487547497726    4.22215877199885
H         7.25851677625125    2.46719589588535    2.81976410350302
H         6.65311864649066    4.12814866917090    3.04349256995251

