49
CSD_code = PUHBEZ | q = 0 | S = 0 | Stoichiometry = C24H22Cl2Hf | MND = 12
Hf        8.14195306448700    2.24242573874872   -0.23242236013355
Cl        6.91716064914736    1.15675607085383    1.37118016161050
Cl       10.13418210645054    1.80887516633727    0.83894239850476
C         9.14992993944889    1.65045824988896   -2.36561486878211
H        10.09056177826494    2.04066741955626   -2.72810679074391
C         8.98682131240779    0.36859252833272   -1.78549867976767
H         9.77715268487772   -0.34805149902004   -1.61588929641287
C         7.61455188524404    0.14363479654127   -1.59757631713036
H         7.16126534181180   -0.77735670552326   -1.26029919165817
C         6.91246375972805    1.28609560412945   -2.05832540681116
H         5.83634174440063    1.34425899336033   -2.14508036218621
C         7.86088509391986    2.20295415583978   -2.59443565892329
C         7.58371697845212    3.67676778509133   -2.88022073692465
C         6.26045233341715    3.89620600446080   -3.62240446900694
H         5.95583925988631    4.93693758556124   -3.54110669200092
H         6.39007002405559    3.65491608924794   -4.67510640268651
H         5.46406502885582    3.26842854405457   -3.24073325699385
C         8.69112168398978    4.31009336901001   -3.73277213013237
H         8.48659626179785    5.36956413384734   -3.86931197246594
H         9.67432309620294    4.20635789889176   -3.28580811953996
H         8.71622071601302    3.83348403913161   -4.71004084746073
C         7.59355740930203    4.22540673336679   -1.45202116122894
C         8.80248382357772    4.51003022487801   -0.75407886480613
H         9.74863446096535    4.77737112235330   -1.20725556432147
C         8.56892266065968    4.56167463435748    0.63770016017774
C         7.17845397900539    4.31075945668928    0.84244577383574
C         6.39985661079981    4.32057076895838    2.01430965191920
H         6.86239332759376    4.54372807113853    2.96469458372035
C         5.05746246314764    4.06474047329450    1.92249162022191
H         4.44446185573081    4.06563207653516    2.81014435325787
C         4.45732033065541    3.80921287802975    0.67853682590556
H         3.39558768422400    3.61677342674163    0.64303504168195
C         5.17781426080925    3.81241417643076   -0.48867297325912
H         4.66008762396631    3.66750953052462   -1.42411389592583
C         6.56774611078743    4.06836908668004   -0.45454502293842
C         9.53971287091071    4.99510243742256    1.70017180019912
H        10.52454605861424    5.14637658619060    1.24729281312156
H         9.64425675912618    4.21268268942675    2.45891190184882
C         9.08878083512443    6.27498373516617    2.36356924644339
C         8.64971310122628    7.34488254987245    1.59361029984679
H         8.63092281276782    7.25316624742295    0.51727494641497
C         8.23235802858201    8.51846619826949    2.19375831795037
H         7.89125691778221    9.34213620369037    1.58367838368288
C         8.24965862787704    8.63856991039142    3.57313535954641
H         7.92211743869502    9.55442664626591    4.04238274513922
C         8.68733993464973    7.57854393160129    4.34752198509141
H         8.70281364939476    7.66468645942071    5.42419754413121
C         9.10262589481256    6.40345538287449    3.74536153670326
H         9.44153972635264    5.57796239366428    4.35559359128615

