45
CSD_code = PUMMUF | q = 0 | S = 0 | Stoichiometry = C15H26ClP2Rh | MND = 5
Rh        4.51839117866125    3.36848372608649    2.35672152529683
Cl        3.35352392956975    3.36850610087546    4.30480309497452
P         4.38534616348373    1.10383874240821    2.52594028812549
C         6.19732347296915    3.36850609074858    1.06477687104220
C         4.99419327600179    3.36851391292035    0.39017603712970
C         4.31607899550449    3.36850636416126   -0.74498627023545
C         2.86834436004473    3.36850092629529   -0.87273155898491
C         2.03488810117529    3.36850049979309    0.24931568279400
C         0.66205219844440    3.36849964210363    0.11027874084486
C         0.08691499138369    3.36849967714383   -1.15162885503763
C         0.89993294105732    3.36850006605051   -2.27305133562743
C         2.27483975276592    3.36849993048381   -2.13643619625027
C         5.09808744896973   -0.00478347421020    1.24215793294492
C         5.08942912386705    0.36458125963356    4.04765353711334
C         2.66969507266983    0.46381636833129    2.58506189873784
H         6.78850764458600    4.27918832705537    1.11321070923955
H         4.87279758332584    3.36850156195540   -1.67851822992321
H         2.48505004536245    3.36850111171946    1.24904797871531
H         0.03424320274432    3.36849996758222    0.98995049983564
H        -0.98785610417729    3.36849999136168   -1.25934918833974
H         0.45827406619225    3.36850081907397   -3.25964544858590
H         2.90225356765041    3.36850069896307   -3.01747916806184
H         6.18254976796297    0.08162412560511    1.23222855522285
H         4.71575984350842    0.28823750922024    0.26614181255812
H         4.82558920075422   -1.03954945475834    1.44397003076290
H         6.15952604252054    0.56497570984449    4.08679441108576
H         4.61431177393515    0.83235920410123    4.90798210986504
H         4.91633945702496   -0.71120350105150    4.06645762974654
H         2.67020269890450   -0.60815526033100    2.78094367740232
H         2.13149891918497    0.98345100272493    3.37574152115812
H         2.17937994053418    0.66359331619422    1.63296255681934
P         4.38534921188303    5.63315491906543    2.52593533356060
C         5.09808821647048    6.74178388462426    1.24215593626859
H         6.18255082690024    6.65537802758289    1.23222618058254
H         4.71576131825741    6.44876445981463    0.26613889300371
H         4.82558803400507    7.77654946518995    1.44397061241223
C         5.08942862551952    6.37241534335814    4.04764933556166
H         6.15952591269392    6.17202328149135    4.08679134493419
H         4.61431178395593    5.90463710374691    4.90797798577426
H         4.91633663449911    7.44819969705854    4.06645272225763
C         2.66969857206956    6.27317962042461    2.58505970417748
H         2.67020631057890    7.34515110379325    2.78094220390459
H         2.13150265676962    5.75354463314482    3.37573932530930
H         2.17938273363019    6.07340346255706    1.63296065758733
H         6.78850050619410    2.45782003606054    1.11320891429709

