54
CSD_code = PUPDAF | q = 0 | S = 0 | Stoichiometry = C23H20Cl2N5PS2W | MND = 6
W         2.69956145278453   17.75970712254716    2.36902768765725
Cl        1.34706731212840   19.74455313433448    1.94118281936968
Cl        3.88857409380808   15.68324211366913    2.64155419177361
N         2.81151228530597   18.11328587725970    4.26038899872072
P         2.06348267367656   19.22596794884617    5.05801111469277
S         2.53038290554153   17.09562460179020   -0.72704729525826
S         4.82882622956881   18.63682060972002    0.14666216379013
N         1.98064638377781   17.11224838653614    0.71958267601993
N         3.90403719924521   17.86791288675036   -0.91192056714171
N         4.18255386762443   18.53438237193327    1.58049924381354
C         2.46309438479541   20.93996356032240    4.55920171821282
C         3.57561799252936   21.09609165518145    3.74056264814055
H         4.09671231465912   20.20611411028323    3.38694889137476
C         3.98606095376254   22.36189587920687    3.36609897044710
H         4.84271038026603   22.48287766090361    2.72003641124391
C         3.29149501695728   23.47282287374515    3.81860172181260
H         3.60680587958538   24.46255849649564    3.52308967419244
C         2.19220451488761   23.31796130490619    4.64712885531001
H         1.65355061148183   24.18626995167978    4.99784609188902
C         1.77689661039850   22.05339068717979    5.02473551112947
H         0.91721976375251   21.93174563368915    5.66758528967542
C         0.23869205684157   19.04052795816296    5.13146081223207
C        -0.67106528873558   19.81129932220160    4.41944811087547
H        -0.32225398327130   20.62656072707210    3.80416636534427
C        -2.02228571098047   19.51618586673617    4.49531321606633
H        -2.73002021709196   20.11744229183637    3.94429156171494
C        -2.46836583880674   18.45953435142032    5.27152366338411
H        -3.52376799090133   18.23683779641194    5.32752615030695
C        -1.56123669616076   17.68817636541510    5.98154301458418
H        -1.90679566244203   16.86630104748772    6.59179791778221
C        -0.21213049362629   17.97728204474011    5.90924990803739
H         0.51152736830373   17.38927863675977    6.46148964447192
C         2.55005709415990   19.21241692701302    6.81744779939984
C         1.84451670224837   19.87630616015300    7.81205006980115
H         0.93585440134285   20.40765163371678    7.56642497343937
C         2.30154410074039   19.83956077645717    9.11666323206652
H         1.75349708586573   20.35291190638920    9.89340168491340
C         3.45992965750313   19.14523218273759    9.42981835653640
H         3.81234204231847   19.12139047942479   10.45054885073224
C         4.16310080021918   18.47994191320340    8.43879133646904
H         5.06309625664188   17.93585277286451    8.68458267474327
C         3.70775087491509   18.51514621347827    7.13324821605691
H         4.22884071790161   17.99896833519349    6.33687447379532
N         0.82774250093274   16.69287616120200    3.06170001715256
C        -0.37174555859202   16.94558800318703    2.52489036538059
H        -0.41633687996535   17.76467334171278    1.81350190740089
C        -1.50599953023932   16.22240062884151    2.84596045533910
H        -2.44845840885900   16.47403428835659    2.38687368501545
C        -1.40500880361074   15.17801018193670    3.75195327377377
H        -2.26878284585135   14.58594380400623    4.01315586713074
C        -0.16498422317289   14.91463778640192    4.31384159400675
H        -0.03277499824781   14.11313168683792    5.02301559066735
C         0.91738208123282   15.69592202724208    3.95127445556376
H         1.90222656282117   15.52043951448122    4.37779393894485

