36
CSD_code = PUTKAS | q = 0 | S = 0 | Stoichiometry = C13H13BrN4O3PRe | MND = 6
C         7.91772937338340   -5.89421698501742    6.93500512532437
C         8.64831847319174   -8.26526690083425    4.15505381289428
C         7.80081088720081   -8.31179439480386    3.05366244406201
H         6.95001866644275   -7.64864179992401    3.01079433112388
C         8.07170826119906   -9.22442581990275    2.05509830804878
H         7.42941411932418   -9.29511798437573    1.19174609444189
C         9.18195296654336  -10.05012578975658    2.18847691844115
H         9.42783860284758  -10.77845273581852    1.43376113063600
C         9.97160077613191   -9.93418342923031    3.31408386293310
H        10.84030871200680  -10.56308816592927    3.45471590224567
C        12.13587945715218   -7.86683827852993    5.62358182961318
C        11.13012586145075   -8.72831854040120    8.14465134863079
C        11.68275989763623  -10.62245440895481    6.12956005038591
C         7.45275244510177   -4.89399702357960    7.94817800481305
C         6.11234124315646   -4.30763344785769    7.51070342406879
H         5.76092110989447   -3.58102847178026    8.23906889983835
H         5.36310711832063   -5.09426547961897    7.42065962288579
H         6.20876094123734   -3.80831744523555    6.54566133418313
C         8.51071175309813   -3.78839099895608    8.04949250969334
H         8.21493059240777   -3.05866770306253    8.79891797737305
H         8.62356694988144   -3.27806754217181    7.09417984520140
H         9.47029885837938   -4.21358297676513    8.33284669559154
C         7.31212691502942   -5.60474339254532    9.29855226593522
H         6.99774849201175   -4.89725102254032   10.06166254613353
H         8.26312275369076   -6.04147650737335    9.59186771729343
H         6.57247933200549   -6.40040363952229    9.23562140600224
N         8.42218951715053   -7.38014274798719    5.20049444760659
N         9.29356876933141   -7.43956861036065    6.24265706952944
N         9.00867732754637   -6.62356617763103    7.16158720498946
N         9.71781789580934   -9.06126719197842    4.28939230135603
O        12.99311588400160   -7.21502001951922    5.23206338172110
O        11.28624352880006   -8.58281029781197    9.26479776310940
O        12.17509531828736  -11.64848566664629    6.02326549721994
P         7.17059964842756   -6.25043777997715    5.40288940540259
Br        8.61182789656322  -10.37857710054192    6.94590252311021
Re       10.66032965535675   -8.95987352305455    6.25974699816348

