57
CSD_code = QAFZAZ | q = 0 | S = 0 | Stoichiometry = C18H29Cl2MoN3S4 | MND = 7
Mo        9.77130452536499   -6.82371562136743    4.04521717231336
Cl       12.05890050028064   -6.62128692175919    4.54113331917746
Cl        9.31287582653092   -6.97333322006081    6.29194588188660
S         7.79271989111651   -8.59049619376822    3.91806962490769
S        10.54685517033632   -9.35549492927653    4.18506271506181
S         7.50437951096294   -5.44467077749716    3.84181702899231
S         9.99970080537736   -4.23676649870681    4.56854952275989
N         8.53568676909553  -11.06283102420396    4.55870161203258
N         7.67053473095149   -2.96303292591852    4.79451436194653
N         9.95513635678676   -6.72095114800200    2.31961479851950
C         8.91066365893858   -9.82502973850476    4.26103037667333
C         7.12842891859466  -11.41174513205619    4.57505394334697
C         6.58629052884412  -11.71512951858669    3.18149995308756
C         9.53352652367516  -12.08180052716540    4.82027898292555
C        10.08338179143886  -12.70388249436713    3.54031865761128
C         8.31115436373002   -4.07225814680816    4.44574684762633
C         6.23088848515086   -2.87736067203853    4.64574372255716
C         5.81176218980491   -2.51201451285671    3.22500550831682
C         8.41546594162056   -1.81662169131132    5.27828321318586
C         9.00338565958476   -0.98037601272638    4.14567327751036
C        10.11959651964428   -6.61636496397664    1.00620374073308
C        10.78282330909153   -5.48425129242216    0.47181269899977
C        10.95710477271931   -5.38757363811305   -0.89582237613828
C        10.50440213249330   -6.38033083946206   -1.74838298874445
C         9.86664508266940   -7.49433005821868   -1.22838021951059
C         9.66333309579375   -7.63141680121433    0.13134941696796
C        11.26922839031970   -4.41498770275992    1.39573221651825
C         8.98177486730815   -8.83623926005915    0.69774371518706
H         6.57692976394592  -10.56577193113117    4.99567793477853
H         7.00224542750297  -12.27682782306923    5.22865965572098
H         5.51964930700642  -11.91038842936604    3.24333044768882
H         6.74548546422558  -10.86122913124986    2.52924798047539
H         7.07490729148667  -12.58494728158357    2.75172531300404
H         9.07657082501642  -12.84811079892847    5.44931066572422
H        10.35517366288591  -11.61497910847822    5.37126265393916
H        10.85784888362574  -13.42267294089578    3.79164582857478
H         9.30135385304882  -13.21462558190349    2.98553585772542
H        10.51859659908828  -11.93272288366187    2.91102111913800
H         5.86130142050562   -2.13398994666139    5.35463874005051
H         5.80875758698138   -3.85361334451173    4.90175512101082
H         4.72810836644006   -2.52324472647127    3.15314313799705
H         6.16792127845548   -1.52217199411793    2.95362173244429
H         6.21298428026496   -3.23843167023521    2.52380191381828
H         9.22967516817825   -2.18522044970021    5.90906684332366
H         7.74270829364744   -1.21051991433036    5.88781472654337
H         9.58087450571835   -0.16089957084116    4.56349088399339
H         9.66275861947386   -1.59258350076842    3.53699293700165
H         8.22008732367473   -0.56867056305909    3.51546232768580
H        11.46159143153386   -4.52144158541940   -1.29962454052991
H        10.65233946577872   -6.28896351293581   -2.81391399885499
H         9.51927311750175   -8.27312718632265   -1.89223114854301
H        11.83601994624909   -4.85434319161729    2.21852065157523
H        11.89807144996487   -3.70348204365928    0.86672674484753
H        10.42113284841612   -3.87915718125857    1.82759847955116
H         8.75555311631320   -9.55668508974299   -0.08438895639799
H         9.62216220832235   -9.31042572036947    1.44408908570947
H         8.05306817409749   -8.54216063825115    1.18970114023398

