56
CSD_code = QAHROI | q = 0 | S = 0 | Stoichiometry = C31H23ClZr | MND = 12
Cl        8.26663969211200    6.86317362255028    9.14743239751185
Zr        8.71878687707531    8.78454149349446   10.42887021359394
C         9.30635267086288    8.85192026296785   12.83460758709407
H         8.90360415988988    9.53905215422779   13.56735486481033
C         8.83832200569610    7.53632576744719   12.58240714181720
H         7.99813085608388    7.05412378841005   13.06505502645631
C         9.77974404177178    6.89394446362211   11.75192775766016
H         9.75331581987092    5.85306145389120   11.45580242096261
C        10.81340325570306    7.80647974158843   11.46570064867417
H        11.72768390617684    7.57083034091663   10.93463147395575
C        10.52856544991740    9.01416731470180   12.14632184468754
H        11.19886951382692    9.85685957687975   12.25764262600512
C         6.53575262403189    9.23206261735225   10.74184584101109
H         6.14693809016574    9.71684866594079    9.83747010522818
C         7.06541732991845   11.31088540898922   12.23113210233720
H         7.39727767940675   11.94792076611177   11.42123946638233
C         7.05496190451044   11.79664230620749   13.52749697811997
H         7.39697605554157   12.80303288698514   13.72213866911485
C         6.60513354303346   11.01427872634968   14.58760705398993
H         6.61376607788427   11.42046915040651   15.58812764482376
C         6.13525200509300    9.73228315390322   14.36772673780660
H         5.77267947004219    9.13288402443985   15.18958802070934
C         5.05228158073470    6.88315805263397   13.15763079156869
H         4.91027822559330    6.86385074697411   14.22858392405520
C         4.62481366470412    5.83100737535744   12.37080263036657
H         4.15419461739996    4.97419119246291   12.83027009909678
C         4.76942406117642    5.87087082409350   10.98580764918496
H         4.39630971153562    5.04864129549262   10.39310690986085
C         5.37283089170229    6.94486086786350   10.35906381495408
H         5.46446109424686    6.97507007403390    9.28119144447510
C         6.60891471792345   10.01376052910707   11.98579129741339
C         6.12571747563124    9.23184763659182   13.07315392299402
C         5.65569176816169    7.97356016651944   12.54314082456766
C         5.85585942199476    7.99303269065526   11.13940706661527
C         9.60317242546236   11.00268396821600    9.77735944104837
H         9.81694423366549   11.88050708213694   10.37789228507060
C         7.32440968223951   11.66831992916696    8.71787881759045
H         7.19327655267281   12.58752198305607    9.27283087487867
C         6.39412305631450   11.29128668614239    7.77727872531697
H         5.52260644071997   11.90809907234591    7.61461979444252
C         6.55652848329535   10.12944461677905    7.00880516296831
H         5.79548226858727    9.86438740029168    6.29113859182849
C         7.69210670475154    9.35764667575937    7.12355858332708
H         7.84340405336770    8.49856756435084    6.48494421813045
C        10.79143266520061    8.26744260198209    7.65340829478784
H        10.34780565733309    7.62070692920760    6.90930547025675
C        12.12979912553661    8.17053993390569    7.96429686319654
H        12.74236050688962    7.42756266630408    7.47672380075804
C        12.72500001628009    9.05332424869887    8.87728858654516
H        13.78859700768986    8.98389039985008    9.05375400932835
C        11.98857152644986   10.00682248573479    9.54011047377496
H        12.46859390734977   10.69612607581565   10.22242289316115
C         8.46683129732285   10.86712887381423    8.91555028013723
C         8.67489499745686    9.72899075412913    8.04913582132485
C        10.01906519338222    9.25306133268233    8.28134486590579
C        10.60684393808575   10.10569958059400    9.28597514833978

