53
CSD_code = QARRAC | q = 1 | S = 0 | Stoichiometry = C24H24ClN2ORu(1+) | MND = 9
Ru        0.56801946588672    2.35815328874279   15.52567507147923
Cl       -0.24291920997986    0.19835566330941   15.18012080711468
O        -2.92140276936393    3.45281174596458   13.69727858436890
N        -1.33076091523192    2.99028977464385   15.20091576965056
N         0.49673778807378    2.42523215400521   13.53074181591665
C        -4.74482139174924    2.55320704688086   15.07033550864977
H        -5.65273842335874    3.02291169838120   15.45077863528589
H        -4.96779446033708    2.13317363551674   14.08886506933111
C        -4.23451374093760    1.51410949906266   16.02471668767402
C        -4.83861952071432    0.32577984936189   16.38864637178861
H        -5.78938127397466    0.04336754783646   15.96409194067646
C        -4.19777869989366   -0.49899070901792   17.30066694549362
H        -4.65456203200754   -1.43405802351537   17.58516327513342
C        -2.97694434132870   -0.13832439604825   17.84707286629696
H        -2.48981533819333   -0.79436736486214   18.55137033142641
C        -2.37241296954444    1.05667136017973   17.48979939415646
H        -1.41783833845541    1.33896123596480   17.90566375708471
C        -3.01169264365058    1.87293135009732   16.57883973559478
C        -2.52183263877246    3.18342080461678   16.01143896417608
H        -2.34391276409949    3.93917683548647   16.78112293784028
C        -3.60270857771218    3.57395676646131   14.96055158890795
H        -3.95082941121561    4.60645557019536   15.03896863046159
C        -1.67884257403773    3.08575759801969   13.95627511116055
C        -0.68116371744726    2.77520316565012   12.96110873125605
C        -0.88813537688521    2.76678060277966   11.58518886330176
H        -1.85270494336472    3.05294287995474   11.19826582639143
C         0.15131763597700    2.37216629857083   10.76402384989864
H         0.03016990871131    2.34988860107640    9.69309039197373
C         1.34953939297386    1.98016998305475   11.35219787936412
H         2.17554107073697    1.64001788236578   10.74896887312920
C         1.47660865934165    2.01456071440927   12.72907509055140
H         2.38726970721984    1.67918397136664   13.20664120079930
C         2.51797957738880    3.52691590571606   15.69844193917654
C         1.54889197363775    4.17738281106348   16.49476147051208
H         1.38992062438597    5.24362968194442   16.37227057306180
C         0.90784730778795    3.49643821785554   17.56453109328237
C         1.19736172488210    2.13701856775695   17.77217101968554
H         0.77597931426387    1.62570794291945   18.63118710840693
C         2.16389320137574    1.45256282648474   16.97942556904176
C         2.81868439609522    2.16205343319087   15.95618453794881
H         3.63460073435810    1.68736775814843   15.42116229945141
C         3.31638589939049    4.30976138676107   14.70207989467903
H         2.71074626514906    5.07755607709581   14.22445364876952
H         3.74708723327577    3.67051624821535   13.93525791550554
H         4.13744434794147    4.80729577107520   15.22098592725194
C         0.03797664113543    4.24747113662770   18.52388369695750
H        -0.40323293646052    5.12600735117292   18.05840050515928
H         0.65273250082809    4.58719330385222   19.35943192905959
H        -0.75156065703613    3.61782232011929   18.92825974872030
C         2.49473573726553    0.02696434570079   17.27336800718355
H         2.53174529981423   -0.14711505189439   18.34680017435620
H         3.44399332430034   -0.25998938450492   16.82808941402021
H         1.71440993355193   -0.61535767981391   16.85669302142999

