27
CSD_code = QAVMIK | q = 0 | S = 0 | Stoichiometry = C13H7BrNO4Re | MND = 6
Re        5.40143144045098   12.44046786357855    7.46636926489337
Br        5.35628800912842   11.89194144378240    4.96010104178019
O         5.57642777012855   13.22487950001820   10.44971808218630
O         6.74573701198203   15.03817168448658    6.44627824473264
O         2.46118773459522   13.36753498958426    7.20757662057483
O         7.28065364504535   11.41339917024215    7.46637482862769
N         4.93290252155742   10.44777804201108    7.76376234188231
H         3.99722389707901   10.05914639590621    7.88337370275196
C         5.50175636513094   12.95888523139441    9.34130225586431
C         6.19606220154571   14.14851859103090    6.89147866183648
C         3.55835258351010   13.07587308552104    7.33820694583576
C         7.20691872342483   10.16566239927202    7.45301403812996
C         8.34091234040891    9.30759106354578    7.29785474927348
H         9.30691643915934    9.77150809567609    7.17038229621346
C         8.18034768004579    7.96580467066047    7.29817617774378
H         9.03657523999022    7.31910561607208    7.17045014386522
C         6.90053222773872    7.33936441308494    7.45862048515948
C         5.73625660305271    8.12498263819296    7.62208976077961
C         5.87976862662417    9.56073445575411    7.61953054344952
C         6.78228653424275    5.94607818532389    7.45214396434744
H         7.67211121683721    5.34686992382094    7.32644405287117
C         5.55341341152455    5.34007238877655    7.60169784180602
H         5.47630409162674    4.26357118769202    7.59433599386621
C         4.40931818207395    6.11487889503400    7.75980588251826
H         3.44734584655919    5.63907392562214    7.87393550135762
C         4.49904884543515    7.49060504965456    7.76909237619694
H         3.59622081110218    8.07310109426155    7.88868420145643

