36
CSD_code = QAXBID | q = 0 | S = 0 | Stoichiometry = C12H11Cl4F6NOW | MND = 6
C         9.52751871521868    8.09839279328299    2.45365219969789
C         9.71022045074124    9.23966350335430    3.26221670328212
H         9.03784217228872   10.07642978902537    3.13454857434244
C        10.72888789041060    9.26676021387231    4.19155468320822
C        11.59289685432223    8.18803943222466    4.35619366008680
H        12.38533286075523    8.22612790767208    5.08689574806109
C        11.41442156513428    7.06789266797924    3.55470795519823
C        10.40204888245185    7.00670058074233    2.61597695080735
H        10.26515541186206    6.13317422537006    1.99466567005107
C        10.93697954665261   10.47446375857319    5.06838312139662
C        12.31271578790003    5.87077472248908    3.72965093532123
C         5.41040816562629    8.63792293654416   -2.28050032872485
H         5.99470719529853    7.99227556549802   -2.94927403865249
H         5.87825035226908    9.62661472578966   -2.22567145736382
C         3.94686107700058    8.68418665993113   -2.70235747449948
H         3.83376970828002    8.67153429081079   -3.78285472343592
H         3.46285453753388    9.57588603689324   -2.30360536552653
C         3.39823108892675    7.43217795695955   -2.02459765467186
H         3.67224334079710    6.54186641745483   -2.59082108282151
H         2.31970494626523    7.45249155492390   -1.89479717196507
C         4.13394459464696    7.46424141186191   -0.69037485187429
H         3.61139246659230    8.10253222900872    0.03409468600581
H         4.29045652385065    6.47087985162088   -0.25642273051873
F        10.82926104027922   10.16944104575594    6.37245956838389
F        10.06148838322778   11.45673609435985    4.83197953130860
F        12.16118443668392   11.00415440990989    4.90854138489558
O         5.42382362606280    8.05244698648336   -0.96170424988396
W         7.16283475203122    8.05354636620164    0.43210770934073
Cl        5.47643291232522    8.25413175944710    2.02058530208078
Cl        6.98735565223872   10.34284130492267    0.04773273376570
Cl        8.35548702288855    7.85611112381871   -1.55108665828468
Cl        6.75234811352455    5.76440622564907    0.34792868555687
N         8.53869374970241    8.06031514725805    1.56262307927020
F        13.48016442350635    6.17399115818332    4.30856347036948
F        12.60301083908466    5.27499747597174    2.56438244712950
F        11.73947091361992    4.92885167015682    4.50072298866301

