59
CSD_code = QENNAZ | q = 0 | S = 0 | Stoichiometry = C21H29CoF4N2P2 | MND = 6
Co        6.48262074741680    2.12082357052602    3.33224919098988
P         8.08306173433250    3.38490093174600    2.47802778690458
P         4.89263521579543    0.80474246709455    4.08463722090670
F         3.57732303470443    4.20069276140919    6.84970961741335
F         7.88003869933657    6.16023772756564    6.89212331299918
F         3.44789410462076    4.29471809043638   -0.11917280908010
F         7.10673905449427    2.40263892152905    5.05122694222948
N         5.09980660272572    4.25720212285852    4.66909162384600
N         5.31964049866202    3.69096722702872    3.51306975079156
C         6.00894083214216    4.75907457476211    5.40803788440846
H         7.02273522140605    4.93085808423971    5.04759376776330
C         5.75071113331291    5.14505730541894    6.77568059167933
C         4.57065116382495    4.85666482318445    7.47202078825705
C         4.37652155468795    5.21684914571244    8.79106320622794
H         3.44571479378482    4.96207204964221    9.27240913810113
C         5.37624491293442    5.89281866827571    9.47002356823493
H         5.23210561365465    6.17547520012420   10.50049797351484
C         6.56102540603774    6.20665749845538    8.82524490841601
H         7.35480735208913    6.73417794555663    9.32922498313285
C         6.72658323808937    5.83280447577990    7.50780519446319
C         4.67694003964568    3.97798151576616    2.43296135112141
H         4.03957633264107    4.85450900186005    2.35803187205111
C         4.87932886583217    3.08435470135138    1.33800108734368
C         4.26574480894797    3.22849874372794    0.09333030575671
C         4.46728232640637    2.32273349156577   -0.92151008311927
H         3.97805094797508    2.45683147222979   -1.87331675139037
C         5.30891589207564    1.24407905728957   -0.67703556033725
H         5.47347493552400    0.51831350536832   -1.46126981119007
C         5.93739234832722    1.09182697849114    0.54690043128958
H         6.58689635092234    0.24134959315559    0.68942837557487
C         5.75141499601193    2.00066782423568    1.58674281847588
C         9.54427990444371    3.59416748992127    3.55684822926239
H        10.26456923359756    4.27939877286332    3.11069673065115
H         9.99721863197622    2.61645829751500    3.70642110985663
H         9.21997622783679    3.96372104791176    4.52671989195412
C         7.70560874199288    5.13428023030865    2.04113054943258
H         8.60583917572102    5.61788064356304    1.66310267031244
H         7.34548545684181    5.68354906970997    2.90799308745425
H         6.93705486499849    5.15374862187508    1.26977950993067
C         8.89018228239065    2.90490947714276    0.89995729433253
H         9.61882877586782    3.66285721115598    0.61590226131403
H         8.13423202908436    2.81454916037359    0.12302627594477
H         9.39539373396997    1.94941976529356    1.00975290016116
C         4.29492918416241   -0.60777953289009    3.07680759440980
H         3.53795738933188   -1.15940127658417    3.63259367344296
H         5.11626278005433   -1.27432779341874    2.82890791927107
H         3.86532574838940   -0.22739982664540    2.15269209017277
C         3.28363953292923    1.58625293251421    4.48250593926703
H         2.60145833005816    0.83947381796182    4.88776053230075
H         2.85427789331948    2.01527973626944    3.57854179383867
H         3.43346354068610    2.37883510874954    5.21170133175982
C         5.28801262682006   -0.00429525801360    5.67296627937268
H         4.43227098524222   -0.56625275995412    6.04579727137068
H         5.56738214474757    0.77519115374524    6.37808464745736
H         6.14238344146523   -0.66261122761754    5.53503031103650
C         7.68099051810761    0.55012554537994    3.17823455593920
H         7.14374315997574   -0.39746888502476    3.12445851935108
H         8.29924930562994    0.52601249021517    4.07471362807101
H         8.34216560201379    0.58744651138744    2.31364472550556

