46
CSD_code = QEVYUL | q = 1 | S = 0 | Stoichiometry = C18H21ClN5Ru(1+) | MND = 6
Ru       10.39980652336567    5.18101317169847    2.53134532388534
Cl       12.46371566136449    6.21509950746862    3.00219732555157
N         9.68451894153566    6.34959050276595    3.97825410057833
N        10.80767089822258    4.03199236003683    4.10644349337062
N        11.37832472492604    4.06966018779470    1.25204561132772
N        10.18816084819931    6.51599127064295    1.11559546409960
N         8.70687814622672    4.33622997057101    2.16499612042601
C         9.03044885291843    7.49841491479859    3.83408405141630
C         8.84376689469328    8.39331907842976    4.86799741369620
C         9.36163212457626    8.10564292747124    6.13029552002497
C        10.01980143098343    6.89153385915161    6.28036848044222
C        10.16852571367412    6.03229692774574    5.19689572808449
C        10.80237604285012    4.71315715354396    5.27087652898399
C        11.32162722658808    4.15823460348019    6.43569589872064
C        11.86116303657102    2.87818314340078    6.42551184720964
C        11.82757877090618    2.18654706172347    5.21517904408718
C        11.30097722205877    2.79706071966624    4.09508654584175
C        12.25529330638106    3.64264077812915    0.64154987404736
C        13.31510875368595    3.08462805973447   -0.13629569439123
C        10.42495734597927    7.41391304219783    0.43609519150215
C        10.68741645368830    8.52369273398391   -0.42355978081573
C         7.70101596237347    3.83156853708927    1.91425735440050
C         6.45260724000805    3.20529000698383    1.60586055337405
C         9.23154903564501    9.06491869596957    7.26212781061240
C        12.46422644761399    2.27886868940830    7.64836694114727
H         8.63875456275084    7.70691403883561    2.84561333888002
H         8.31018564384125    9.31374018326903    4.69187147890812
H        10.42932026143245    6.62699819768806    7.24150931504635
H        11.32110538980436    4.72484498385821    7.35244488859845
H        12.21917391205473    1.18412618635394    5.14636286403852
H        11.26914288692412    2.27617982385374    3.14547292028297
H        13.94096349763210    3.88996032195290   -0.52084322723583
H        12.90856885391485    2.51348096877632   -0.97076980582561
H        13.92572674386719    2.43140888540648    0.48688245089648
H        11.66346201536990    8.94144012454585   -0.17553545334346
H         9.92554120961970    9.29121506691713   -0.28849808080519
H        10.68970899027011    8.19808930001683   -1.46361176929308
H         5.62833533997740    3.82288404716156    1.96269688242896
H         6.39863327924998    2.22726340098984    2.08414388862205
H         6.36198981539073    3.07943960307469    0.52691173993871
H        10.07173140757179    9.75974198779291    7.24565702291696
H         9.24314446223955    8.54871217649236    8.21833337667535
H         8.31720277401722    9.64627377311018    7.17694876290876
H        12.35244280952709    1.19779035630720    7.64806493390321
H        12.01430296084049    2.68777840809096    8.54911614134932
H        13.53071557866918    2.50443026162272    7.67395758348447

