57
CSD_code = QIDBAH | q = 0 | S = 0 | Stoichiometry = C24H23Cl2N5O2Pd | MND = 4
C         7.38530807400520   11.64783455340523   12.59568000049289
C         9.39354334193315   11.06542888837392   13.34903169970381
H        10.25195496435752   10.44178910651150   13.48219394876989
C         9.09230815873220   12.27812784574206   13.87144768836560
H         9.65478226242378   12.92113226301336   14.51469936137859
C         8.18623074750895    9.46089607823883   11.85005031605080
H         8.97305996427418    9.37571155423713   11.09037808540963
H         7.20235542767077    9.49585957936311   11.34319134734601
C         8.27593860314333    8.24891026271470   12.79510602508050
C         7.78870339447480    5.80981400685835   12.70863688015857
C         7.33420198471054    4.80155913003588   11.86183644259637
H         7.02854024459832    5.04590273831636   10.85354159785543
C         7.27381900211215    3.49452273516165   12.30488376847433
H         6.92037568830380    2.72092891250916   11.63963287239002
C         7.66493934876400    3.17891701283434   13.59552501386499
H         7.61796136221593    2.15755758648523   13.94128869902115
C         8.11456244427392    4.18122913413881   14.43756545137405
H         8.41917214759395    3.94293805302599   15.44549790099156
C         8.17945980367055    5.49369715968203   14.00507413319455
H         8.52817413346029    6.27036649673362   14.66383249633853
C         7.15810763553522   13.85116454166638   13.63097822355871
H         7.04373747532945   14.01606042102897   14.70897056680012
H         6.15739667927161   13.75198091366959   13.17171457044692
C         7.93847190592319   15.04014947692188   13.03643480940763
C         7.47687015816657   17.36348956453897   12.27627331188192
C         8.77616159134256   17.70797000781294   11.92090459596147
H         9.56673993069591   16.98354219072675   12.01444306781900
C         9.04032020587961   18.98044330408608   11.44663506914999
H        10.05107897567950   19.24090838656540   11.17148975985792
C         8.02685040349091   19.91477907792870   11.32096107641122
H         8.24219745077893   20.90545429477034   10.95058952546594
C         6.73231853196341   19.57049861567247   11.67265002043243
H         5.93382382348138   20.29108752281295   11.57867294279069
C         6.45651954614775   18.30298221671364   12.14762927405140
H         5.44510092109106   18.03652056330285   12.42262261277799
C         3.09346106756048   12.64496779515659   10.73063832498300
H         3.40958358027974   13.47109383263517   11.36509535749107
C         1.87753533187527   12.66948755703988   10.06983956404591
H         1.22612048503223   13.52327575461640   10.16719461869389
C         1.51699882915250   11.58073743585761    9.29095413051923
H         0.57484136387333   11.56737909367930    8.76432233856774
C         2.39279567142294   10.50967820415282    9.20298870935119
H         2.15305711399240    9.64321569677698    8.60758651753529
C         3.59189550632097   10.56856231516210    9.89188819377298
H         4.31476771180072    9.75641036803809    9.83967015486982
Cl        6.76864798395123   11.79082138535582    9.62723396131953
Cl        4.51524628006201   11.48278219380338   13.59633789157617
N         8.32985685753079   10.69486222703116   12.56948308403303
N         7.85411661118464   12.61819926052209   13.39506293666166
N         7.82985234153734    7.11602650509503   12.19690587006740
N         7.13113869821671   16.09580666277467   12.76963670894267
N         3.93138733301808   11.61517208681977   10.64026596836901
O         8.72277023680976    8.33483327317323   13.91301231245001
O         9.13467881202216   15.00008893620156   12.87831206473155
Pd        5.66748901501735   11.63167544632193   11.62646538271924
H         6.14324526272053   15.98016866995468   12.95303605776370
H         7.48692757361747    7.19940110422946   11.24910669586509

