67
CSD_code = QITWEX | q = 0 | S = 0 | Stoichiometry = C28H34Cl2P2Pt | MND = 4
C        12.25218413457211    2.19130534222177    2.77471263123637
C        12.40591548597455    0.84759723808969    2.75909426557959
C        11.20736697536698    0.09126633992349    2.38531892320809
C        10.12512965180366    0.85763049693378    2.14323482688204
C        13.27316606165514    3.22767608559892    3.11029834318204
H        13.67469426019202    3.07285360088799    4.11215794535242
H        12.81565382193659    4.21450848277383    3.06586699129981
H        14.10410901253323    3.20014646938309    2.40455625082230
C        13.68191010540823    0.13932492054324    3.07707070241695
H        14.49003745165112    0.84784653523389    3.23137010989150
H        13.95606518055753   -0.53452222958158    2.26660055787979
H        13.56744849519223   -0.45668352653910    3.98262642611017
C        11.25185170657900   -1.39835607526295    2.27894223103870
H        10.25551644649119   -1.80598288080448    2.13327007133221
H        11.68662464396937   -1.83663700326620    3.17614384412092
H        11.86871695600904   -1.69594715123478    1.43107838228128
C         8.76114050257470    0.44941646376354    1.69868784769863
H         8.74853345544831    0.26039997708868    0.62417769114673
H         8.05356451947804    1.25179356976197    1.91544843511654
H         8.42663264112641   -0.45195234148698    2.20895828137810
C        10.48599380532889    3.17121339509326    0.65727875411583
C        11.51882504907962    2.93650875438448   -0.23990076608191
H        12.41367966220994    2.42915151158205    0.09089116599077
C        11.39645738634701    3.36809853901103   -1.54896315678330
H        12.20340325349768    3.19912107645936   -2.24722791563869
C        10.24746576993694    4.02111288918978   -1.96385218082822
H        10.16113685174341    4.36261626011040   -2.98490449312705
C         9.21211005300704    4.24538232130158   -1.06979039494718
H         8.31946596791476    4.76024703669259   -1.39304698567377
C         9.32922662270049    3.82071291628370    0.23971916717050
H         8.53588481185355    4.01207094263724    0.96015976324519
P        10.54062681360763    2.60573841923771    2.38147631836996
Cl       10.64291600727753    5.56879437267441    2.73711563813466
Pt        9.19408294932581    3.98460638644479    3.58779451307482
C         6.13564637947225    2.19139366444017    4.40042175755932
C         5.98187001402731    0.84767823714983    4.41616073113185
C         7.18034896329158    0.09136122159215    4.79008828229318
C         8.26256312810956    0.85775083944129    5.03224400194568
C         5.11454480603259    3.22750626930282    4.06436627012341
H         4.71281981264555    3.07192864977933    3.06262614210280
H         5.57192622215557    4.21452209270619    4.10818782352715
H         4.28369053188301    3.20015659553041    4.77032340832198
C         4.70584979433262    0.13944913723490    4.09817579643662
H         3.89781046127301    0.84800940215563    3.94365102995956
H         4.43153658270242   -0.53417287743744    4.90877231471442
H         4.82032082719984   -0.45678646583356    3.19277259944189
C         7.13573903793876   -1.39825741488791    4.89657358250033
H         8.13202019996903   -1.80600266120220    5.04226066206283
H         6.70093297819025   -1.83652198741052    3.99938184495814
H         6.51882962432928   -1.69577342400476    5.74442994044314
C         9.62646364000801    0.44944999774920    5.47699146955705
H         9.63900582401032    0.26059622007782    6.55153380699659
H        10.33417703568705    1.25166741055771    5.26012706149828
H         9.96085550745886   -0.45205976068780    4.96689829577133
C         7.90119968204644    3.17141096371565    6.51813250850968
C         6.86784775848493    2.93697718895539    7.41478843092671
H         5.97303312240735    2.42990716963042    7.08347307343400
C         6.98969888258248    3.36837927396499    8.72395058905052
H         6.18230204258377    3.19968927635654    9.42175964131614
C         8.13873676987001    4.02091148877903    9.13947429433696
H         8.22466147702870    4.36232157435254   10.16059173765326
C         9.17461998712715    4.24487612522582    8.24595090865444
H        10.06726653017370    4.75940682051211    8.56973114340084
C         9.05800106885505    3.82043852831372    6.93631323668243
H         9.85180795572623    4.01153994756653    6.21632777082520
P         7.84712698720707    2.60590422725229    4.79392394780641
Cl        7.74710985281872    5.57038313401509    4.43913171101919

