30
CSD_code = QITZAU | q = 0 | S = 0 | Stoichiometry = C8H16BrCuS4 | MND = 5
Br       -0.00000000000033   -0.00000000000023    3.23751267472984
Cu       -0.00000000000007    0.00000000000010    5.50049773361344
S         2.33607506722488    0.49062128318251    6.59933243405265
C         1.82317353565347    1.56115570640189    8.00168645617884
H         1.22940183966201    0.96515295034915    8.69503551992751
H         2.72615391583059    1.90164403920044    8.51168675737354
C         2.75806090155939   -1.04395983208005    7.49015317684572
H         3.30291262105753   -1.63589393390550    6.75484612345850
H         3.42875895825808   -0.78204527983209    8.30965693007753
C         1.04395983208003    2.75806090155941    7.49015317684569
S        -0.49062128318252    2.33607506722495    6.59933243405260
S        -2.33607506722490   -0.49062128318259    6.59933243405264
C        -1.82317353565340   -1.56115570640185    8.00168645617888
H        -1.22940183966185   -0.96515295034914    8.69503551992750
H        -2.72615391583048   -1.90164403920038    8.51168675737368
C        -1.04395983208004   -2.75806090155934    7.49015317684558
S         0.49062128318257   -2.33607506722473    6.59933243405268
C         1.56115570640189   -1.82317353565343    8.00168645617896
H         0.96515295034920   -1.22940183966196    8.69503551992766
H         1.90164403920042   -2.72615391583059    8.51168675737364
H        -1.63589393390546   -3.30291262105740    6.75484612345827
H        -0.78204527983212   -3.42875895825811    8.30965693007735
C        -2.75806090155940    1.04395983208001    7.49015317684560
C        -1.56115570640186    1.82317353565340    8.00168645617877
H        -0.96515295034912    1.22940183966187    8.69503551992737
H        -1.90164403920038    2.72615391583049    8.51168675737356
H        -3.30291262105759    1.63589393390542    6.75484612345839
H        -3.42875895825802    0.78204527983207    8.30965693007747
H         1.63589393390544    3.30291262105769    6.75484612345856
H         0.78204527983203    3.42875895825797    8.30965693007760

