29
CSD_code = QIYTEA | q = 0 | S = 0 | Stoichiometry = C12H8Cl2N2O4Pt | MND = 6
Pt        0.43978688657737    5.34137270906478    5.36460960195066
Cl        1.44987541466812    7.46146152283322    5.06231578785654
O        -0.83152484720173    5.72738975879536    3.82687080692132
O        -1.01865830975332    5.50127867427035    1.62875077212444
N         1.54081265563681    4.60527712823955    3.88225595504711
C         2.74047479737949    4.05301797877630    4.01442881687848
H         3.14325578364161    4.00583326135198    5.01908869192444
C         3.42696604807930    3.56763264781753    2.91342904330862
H         4.40028519321143    3.12308961343365    3.04540397485942
C         2.84670572288474    3.66287289567305    1.65549260689525
H         3.36395252443076    3.29101819603709    0.78417548252585
C         1.59375942863211    4.24259880987090    1.53622220879824
H         1.08233514573398    4.35043560197358    0.59231974402054
C         0.96609743724312    4.70643037015087    2.68168740063023
C        -0.41597044583146    5.36283318675163    2.66489182145218
Cl       -0.57025569944827    3.22126122043087    5.66687489121521
O         1.71098727528039    4.95521408897811    6.90239545020207
O         1.89819163391204    5.18157066735947    9.10048321881546
N        -0.66114811939888    6.07772039587738    6.84689914221026
C        -1.86087234067140    6.62985286674633    6.71472053426296
H        -2.26363169159630    6.67704677781904    5.71005353267328
C        -2.54744468224679    7.11510194713419    7.81573045872849
H        -3.52079733714522    7.55957012612055    7.68374914152402
C        -1.96720540218679    7.01986695617171    9.07367641552970
H        -2.48448550848125    7.39168119816425    9.94499050504600
C        -0.71420805170807    6.44025377407805    9.19295253972109
H        -0.20278228709565    6.33245520623284   10.13685878532148
C        -0.08643095530661    5.97663263023041    8.04747063333193
C         1.29572973076049    5.32042978961695    8.06430203622469

