37
CSD_code = QOFHEY | q = 0 | S = 0 | Stoichiometry = C15H15Cl2N2O2V | MND = 6
V         3.20316176629510    2.36409582002395   12.44524348977721
Cl        1.19443037892471    2.88786359701730   13.05177746638327
Cl        4.03900140028428    4.11097935131664   13.67114324871777
O         3.50603574700935    3.23467584017306   11.04937509684668
O         4.93440576963016    1.69079514984511   12.36162090873493
N         2.39349546246328    0.81385594134406   11.59517873159407
N         3.13096464652618    1.14150689420508   14.01780668535790
C         2.21687803661906    0.62091032745658   10.29180698371212
C         1.46995452006400   -0.41699349014850    9.77723276435457
C         0.86717495135531   -1.31075959135980   10.66191050458745
C         1.07181389932071   -1.13737560307418   12.01413028439567
C         1.84930654634868   -0.06559839881629   12.46285357444222
C         2.23993016013929    0.14700514706816   13.84608674783557
C         1.81814107825268   -0.63632526712101   14.92475044334490
C         2.34789916989200   -0.39946916809137   16.17732909091815
C         3.30364495449187    0.59886994253929   16.32485137697688
C         3.66197223183804    1.34292036600952   15.21296498797458
C         4.28504747317914    4.61686804770503    9.25574257436991
H         5.09233690000412    4.59255394685696    8.53011378205521
H         4.24548173243035    5.60780551007518    9.70965695177518
H         3.33128571349433    4.43972235272590    8.75890681786692
C         4.49623053796152    3.59333201494140   10.34107201430320
C         5.73766546753732    3.02562462611720   10.60515388908824
C         5.88463045928565    2.06882204733968   11.62873678399788
C         7.24908059750881    1.45449038458268   11.85304684378766
H         7.64956207548072    1.05400923295924   10.92429887488518
H         7.17267068006177    0.66025442232204   12.59183242952403
H         7.93416488531384    2.21541446403324   12.22199192107797
H         2.68154772734164    1.34893546921332    9.63599936753081
H         1.34523064531536   -0.52240909491002    8.71139699510826
H         0.25914775608972   -2.12319205065426   10.29550963615660
H         0.63104867066533   -1.82084488292479   12.72207724295023
H         1.07488785157872   -1.40471709089361   14.78456169163208
H         2.02405414275929   -0.98310946810942   17.02610620269672
H         3.74471303403419    0.80992798321401   17.28562311364829
H         4.37300974580946    2.15938285220061   15.27797296843322
H         6.59599318470195    3.31607237481286   10.02143751315467

