30
CSD_code = RADPES | q = 0 | S = 0 | Stoichiometry = C13H8IN4O3Re | MND = 6
Re        2.28651034044563    1.02186290184112    9.30833770843026
I        -0.29691908609023    0.53303244924890   10.17234788731383
C         4.08850696685781    1.39485450036801    8.67068734896306
C         1.62066162615933    2.80110961383635    8.77668880538243
C         2.66811830773502    1.62304339546215   11.13455410984256
O         5.15776137439381    1.57391826661524    8.30250378444554
O         1.13564160460369    3.77184977778065    8.42520066341266
O         2.81242318304787    1.91513996433592   12.22965946332036
N         2.70653615994089   -0.97282289392254    9.61258360894330
N         1.70995153530393    0.01985216018990    7.48737326953479
N         2.38214940021470   -1.83676195030934    8.72736991046178
N         2.63843405536993   -2.71103853843469   11.14628279049780
C         1.82971269578552   -1.32675054085754    7.59662599876490
C         1.39698242124953   -2.20118558769008    6.59382540488205
H         1.51624024443288   -3.25935218743283    6.75528415127386
C         0.82060455461296   -1.67432676692645    5.46053511368803
H         0.46536272831099   -2.31892030804329    4.67178277463274
C         0.69980010301570   -0.29119611281038    5.35311190903121
H         0.25266874644899    0.16268652446201    4.48388494984459
C         1.15435988583703    0.50993938080234    6.38286106218859
H         1.06483318215737    1.58735059057110    6.32293961398128
C         3.20062459982541   -1.56334896795594   10.78652993279895
C         4.22518348807048   -0.95617892909073   11.51719448047728
H         4.70048203327725   -0.05361472368867   11.15925361867629
C         4.63336911746705   -1.56886059215655   12.68800113289928
H         5.42113564111658   -1.12962962230448   13.28155044894622
C         4.01723778243000   -2.74636261408106   13.08489792319656
H         4.29508964125114   -3.23841176754984   14.00303549133320
C         3.03081959466333   -3.28018363710313   12.26511658436165
H         2.52341807206856   -4.20129378514895   12.51718005847557

