50
CSD_code = RAHBAF | q = 0 | S = 0 | Stoichiometry = C20H23Cl2N3OZn | MND = 4
Zn       -2.93568535163376   10.37224857266958    5.36256902174257
Cl       -2.31255128580463    8.28149903848225    6.09745450055526
Cl       -4.90553940102702   10.95681367178049    4.68207637962093
O         0.68965468629485    8.12094243552660    5.26388133234213
N        -1.36243936520168   11.40135877634037    6.15026028900436
N        -1.48454157750323   10.12407673696458    3.84176322128668
N        -0.32111487003809   10.12237384250321    4.55365178996896
C        -0.26459871722885   10.78497104108238    5.74088175490782
C         0.93403305064110   10.82939725999044    6.49222462217979
H         1.78042919714401   10.25287833572334    6.16177938499811
C         0.99597111084507   11.55539164641015    7.64751308257954
C        -0.16102012453904   12.28011393059895    8.06224948915810
C        -1.33552825985197   12.15254312072365    7.27865854927715
C        -2.51211511699014   12.81041082993693    7.67373067826483
H        -3.39542541423257   12.69131383357266    7.06074660774855
C        -2.52608652161974   13.58199353469372    8.80493440806964
H        -3.43216448406861   14.08597140351983    9.10483722005058
C        -1.36726647712124   13.72244504658587    9.57770661912167
H        -1.39114195569982   14.33605594034318   10.46554705307620
C        -0.21040508497502   13.08316323517157    9.21629036104538
H         0.67535128522424   13.19363667549742    9.82183257495900
C         2.24898396076103   11.58442252354942    8.45924919722614
H         3.01438002373157   10.96398252629874    8.00157299297661
H         2.05486648520502   11.21340719304586    9.46424261403542
H         2.62580679292958   12.60290604456446    8.54190068919555
C         0.54079417056774    8.97468499276190    4.18642707707188
C        -0.24003250323568    8.37334026422783    2.97883940984081
H        -0.50805182683452    7.32908807540632    3.16746101006302
C        -1.48264094962696    9.21170571299323    2.94437721034907
C         1.91867041691969    9.44354021551988    3.66272586651048
H         2.03896002516900   10.51390932824546    3.82970558266428
H         2.69968569312855    8.91256798698028    4.20782371887881
C         1.95224589676791    9.14534561090357    2.17949300844481
H         2.43836695056706    9.87955691048608    1.55301279044550
C         0.65217667263609    8.51150294317671    1.76198779060868
H         0.16858795597394    8.77453938999933    0.83190531463668
C         1.92733333844895    7.70971256847919    1.72041586196780
C         2.16811538755683    6.57224089562612    2.68452547165529
H         1.79923604306022    6.78629308415609    3.68135440718123
H         3.23582425600149    6.37004197399981    2.75163115214532
H         1.67764204480741    5.67053299793018    2.32081099782847
C         2.49401956310597    7.43597719068453    0.34229429909241
H         2.04518685722568    6.53821920097387   -0.07899321786939
H         3.56998217075149    7.28259973585151    0.40137818003046
H         2.30263111598747    8.26596211519112   -0.33341690600949
C        -2.61744026426911    8.99530229064694    2.02530350195034
H        -3.40365703636949    9.71968024078068    2.22439308119316
H        -3.01277897748781    7.99001858003526    2.16854394043870
H        -2.29341784733740    9.08080292499798    0.98898052785558
H        -0.19519173875758    7.93431757437443    5.64956548963915

