34
CSD_code = RAMJEU | q = 1 | S = 0 | Stoichiometry = C15H11Cl2N4ORu(1+) | MND = 6
Ru        0.58744351288379    3.71808001154933    5.56550884986403
Cl        1.54005474285493    2.43452285932411    7.32282405404411
Cl       -0.30417538916345    4.45168774971842    3.48882981273567
O         0.31833823302249    6.14180231223077    6.98487188654549
N         0.42616224816874    5.16110900776431    6.40810474085394
N        -1.22135534817257    2.86060063355155    5.97858994768002
N         0.77680757069720    2.04554994746593    4.59850816509792
N         2.46088582097668    3.96658997847506    4.78726902767657
C        -1.37698006272246    1.64229288034213    5.41651513881779
C        -2.55372696719681    0.91840610066579    5.58457544024366
C        -3.58242063084950    1.45636740269294    6.34077860327061
C        -3.40547626298030    2.70681944706160    6.91131786714078
C        -2.20760491069111    3.37422816356528    6.70427071765281
C        -0.22800513014990    1.16691222368022    4.63144979289382
C        -0.11423092452913   -0.05077185369436    3.96357018790579
C         1.05818840607680   -0.31977962643897    3.27231120237889
C         2.08696838147502    0.61077460528996    3.25071431352501
C         1.91300064067468    1.81056676231913    3.93775104698641
C         2.87280702192278    2.92007498345740    4.03925150794710
C         4.11909652887624    2.92601075762656    3.41981347225493
C         4.95099195716044    4.02319854794437    3.57337510145587
C         4.51353758342936    5.08717448757737    4.34609257134137
C         3.26009598408897    5.01655354447687    4.93521517789134
H        -2.66352989841002   -0.05139518436135    5.12815889474424
H        -4.50188633424918    0.90985664031879    6.48004236282105
H        -4.17766254571397    3.16495201411691    7.50757094521056
H        -2.04549324606769    4.35353865541608    7.13971854701794
H        -0.91298693703812   -0.77301520818578    3.98074829567001
H         1.17045858237701   -1.25677310007169    2.74941169312047
H         2.99734312066667    0.40218498422376    2.71438377286621
H         4.43260430639243    2.08457901257310    2.82431045758808
H         5.91937546489008    4.04550165011976    3.09876501421283
H         5.12620830152872    5.96148192889992    4.49399576867848
H         2.89546617977100    5.83611768030418    5.54378562186605

