25
CSD_code = RANSUV | q = 0 | S = 0 | Stoichiometry = C10H8Br2Cl2N2Pt | MND = 4
Pt       -3.51432710683813   -6.08141219689259   -6.76832093780120
Cl       -2.37697958467089   -7.96702208469666   -7.46034804096930
N        -3.23556359598896   -6.59007594713192   -4.91123211433104
C        -2.54668461758264   -5.79609556430025   -4.09167677514357
H        -2.16958928503152   -4.86536589693743   -4.50043184654400
C        -2.33223859607141   -6.13448646656774   -2.76555235637286
Br       -1.33778097503404   -4.96720182104113   -1.65785398622701
C        -2.84376537100743   -7.32137756554319   -2.25936236219520
H        -2.68543292607229   -7.59640451456453   -1.22837438784933
C        -3.56006692093676   -8.13165506530767   -3.12554843367076
H        -3.97862504697382   -9.06418968765196   -2.78297818565210
C        -3.73285706278276   -7.73679896608595   -4.43996836988521
H        -4.27412526130152   -8.35539944922042   -5.14590327370557
Cl       -4.65033424712354   -4.19472787408839   -6.07690881727286
N        -3.79419967175031   -5.57291074456784   -8.62530883000832
C        -4.48374739220919   -6.36797791124553   -9.44328939965648
H        -4.85957064000390   -7.29869846207122   -9.03332117420592
C        -4.70042052361632   -6.03076908267662  -10.76933940791115
Br       -5.69589061309086   -7.19952999062890  -11.87458261352370
C        -4.19048283383126   -4.84390276286681  -11.27718410937998
H        -4.35061478751347   -4.56973810233158  -12.30812595764659
C        -3.47338345097522   -4.03252566668526  -10.41268834811372
H        -3.05598176534441   -3.09997298175085  -10.75661702829984
C        -3.29831971882960   -4.42624896495498   -9.09820297206977
H        -2.75631800541888   -3.80681223020988   -8.39358027156076

