65
CSD_code = REPFOJ | q = 0 | S = 0 | Stoichiometry = C20H34Br2N6O2Zn | MND = 4
Br        0.31997111227675    5.20920591322135    5.50574445944486
Zn       -0.32371593768506    6.53941233697608    3.60575708290625
O         0.82470991743194    8.39452410524328    4.85823095198593
N         2.52118793633810    9.43104296874482    3.76093665035075
N         1.28740802035396    7.67254262686419    2.79627488152818
N         1.58998821129460    7.04234489157828    0.62313233033656
H         0.84862467769218    6.34971647327547    0.73863177617232
H         1.99000153615337    7.18343591028541   -0.28728931820981
C         1.49741199118490    8.48297275912117    3.84825571161507
C         1.88184519329348    7.85793360246190    1.62499544158631
C         2.84148527440723    8.91004259417709    1.48322694516673
H         3.32520022866369    9.08544349285363    0.53851350964090
C         3.14346916186343    9.63791125527822    2.58324649521414
H         3.89424326120100   10.41600424270632    2.57130785593149
C         2.90954733715831   10.15020042263368    4.95964121435348
H         3.99772539955985   10.25846847203558    4.94934373887125
H         2.61645207038845    9.52676135992104    5.80800518877463
C         2.24676576680508   11.52348144595379    5.08611355356415
H         2.73035782042551   12.05287734354389    5.90971827658448
H         2.41943176400260   12.10038345275798    4.17332497796482
C         0.74963900544993   11.41942216257898    5.36306262906660
H         0.26155396096636   10.89996745472325    4.53598860541638
H         0.59351372831668   10.81223497170014    6.25662877567648
C         0.09868416509317   12.78560769613504    5.55208883371495
H         0.58069321448863   13.30878733670606    6.38126733807792
H         0.24861832257855   13.38628058309737    4.65186409369925
C        -1.39631422974507   12.65825802014913    5.83425924450889
H        -1.53982013856087   12.11731967865400    6.77230475097061
H        -1.85861599761223   12.06382395349074    5.04251268739657
C        -2.08092132240344   14.01671491667198    5.91913505174349
H        -1.63920606767534   14.61632805729576    6.71166869066831
H        -3.14200258878260   13.90134537867064    6.12896261145314
H        -1.97383082689981   14.55983506078051    4.98207602526062
Br       -0.96715548930230    5.20936029366349    1.70568864541425
O        -1.47212983867984    8.39451095106424    2.35326742686911
N        -3.16860608249455    9.43104363367496    3.45055751530764
N        -1.93483813833192    7.67254355696290    4.41522741314287
N        -2.23742894700116    7.04235811848453    6.58837405582582
H        -1.49606239466937    6.34972204338872    6.47287981430837
H        -2.63744240691183    7.18345918465532    7.49879326784788
C        -2.14483461086573    8.48296880842908    3.36324344775558
C        -2.52927709285494    7.85794159171668    5.58650650070317
C        -3.48890630179381    8.91005808914380    5.72827066608996
H        -3.97261931778946    9.08546342831076    6.67298386957224
C        -3.79088499257378    9.63792213341289    4.62824888135489
H        -4.54165699254909   10.41601632812062    4.64018384096897
C        -3.55696403472586   10.15019601546752    2.25185077179709
H        -4.64514214269654   10.25846239516545    2.26214902491588
H        -3.26386720717513    9.52675544481069    1.40348827986370
C        -2.89418292611524   11.52347746676906    2.12538201893589
H        -3.37777320075566   12.05287253514394    1.30177588184020
H        -3.06685146119306   12.10037990038988    3.03816983749796
C        -1.39705558947397   11.41941957827602    1.84843808066787
H        -0.90897428275098   10.89996237613944    2.67551267102689
H        -1.24092955869081   10.81223302075120    0.95487171927207
C        -0.74609810052677   12.78560438697128    1.65941643649299
H        -1.22810636800591   13.30878700231622    0.83023966496115
H        -0.89603100800391   13.38627514820625    2.55964277360747
C         0.74889936304855   12.65825213163878    1.37724306121803
H         0.89240232130089   12.11731693127375    0.43919529925555
H         1.21120047993296   12.06381375170741    2.16898679732167
C         1.43350941135767   14.01670750380016    1.29237048294859
H         0.99179216831737   14.61632434644446    0.49984094618569
H         2.49458955251734   13.90133673119552    1.08253800150832
H         1.32642322142598   14.55982423222594    2.22943184409088

