19
CSD_code = REXZEZ | q = 0 | S = 0 | Stoichiometry = C7H9AuBrP | MND = 2
Au        7.43356656623210    3.87647826827804    1.21977100198443
Br        8.85579541715688    5.27260171675680    2.48831737138167
P         6.05469213223669    2.48729189586260    0.09869700748098
C         6.60340898943024    0.74567344676870    0.03139327839333
C         4.37045773849351    2.36188836675824    0.74465754989068
C         4.17287407447400    2.54430896339148    2.10956513047327
C         2.90154815463366    2.43875227125345    2.64315789296629
C         1.82626803714471    2.16218072218185    1.81428498303063
C         2.01942032179340    1.98861674477921    0.45245637033046
C         3.28878960535867    2.08683182508853   -0.08621982259460
H         5.76705928477767    2.68095160406103   -1.24623313380020
H         5.01915272600548    2.77604158994076    2.74461539671878
H         2.74892309680449    2.58020818076716    3.70242716792661
H         0.83246699621201    2.08732442551827    2.22914135298173
H         1.17787865130261    1.77923914349582   -0.19093607261533
H         3.44465715248950    1.95677388160553   -1.14906219783141
H         5.85901056253459    0.12093601946057   -0.46350188710624
H         7.55293864109596    0.69230874978884   -0.50184884826138
H         6.75349185190569    0.39329218413516    1.05331745853705

