43
CSD_code = RIFMOI | q = 1 | S = 0 | Stoichiometry = C16H20ClN2RuS3(1+) | MND = 6
Ru        0.56160032517597    3.59693937175688    1.74805206082298
Cl        2.35369768444783    2.51459545340881    0.70418909843354
N        -0.53676985290082    3.00130728552064    0.18699264648817
N        -0.01234049781505    1.80467447562682    2.41605882552510
S         2.03672684891226    4.06876031219060    3.52748700382801
S         1.25955405401254    5.64706674247733    0.79321961833205
S        -1.10932072713880    4.81192606147939    2.90941911600022
C         3.17768540575267    5.26604767946068    2.75808975661811
C         2.49663603109236    6.35465208861364    1.95957337816023
C        -0.18506014333646    6.74459830816905    1.09122930264627
C        -0.84961022074751    6.58314944414940    2.44085931487405
C        -0.41987681593652    4.83711968001695    4.61291680466663
C         1.06511480518752    5.12418234971348    4.69714485237961
C        -0.66770971889549    3.65037215859799   -0.96621179451782
C        -1.32007593977334    3.12148280916092   -2.06368609422098
C        -1.86457962600959    1.84854862250436   -1.96664645834859
C        -1.70892267921684    1.15519676506778   -0.78161723242271
C        -1.02888914328755    1.74834347434283    0.28151296838617
C        -0.74327663648803    1.07640750386354    1.54697065162607
C        -1.14305285398744   -0.22471361543476    1.85050230326459
C        -0.77075667318594   -0.79166872556348    3.05424017996456
C        -0.00028969731349   -0.03888745794982    3.92980995816119
C         0.35160686526346    1.24740120243247    3.56787474743516
H         3.80964158065070    5.68048681647910    3.54411858465422
H         3.77549177358563    4.62683964262903    2.10289936806501
H         3.23196666611936    6.87429870203927    1.34435305093756
H         1.98819846046383    7.08241028751743    2.59088534491406
H         0.15376972808621    7.77046859879491    0.94381341850315
H        -0.88206577629572    6.48619667820071    0.29325380399081
H        -1.84249062048900    7.03311029532931    2.41878261341318
H        -0.27419507268382    7.04825357350859    3.23855142332394
H        -0.99567760808913    5.57138169287826    5.17753658250938
H        -0.64561868983586    3.84099246911648    4.99568254879044
H         1.42606933486749    4.88894743650615    5.69881704018863
H         1.29769981234416    6.16551226116087    4.48297485325250
H        -0.21277057582328    4.63126083153179   -1.02739846485800
H        -1.39033725888250    3.69202890808000   -2.97501605534481
H        -2.38226835800766    1.40250003321699   -2.80050436767337
H        -2.09821692044779    0.15563755942873   -0.68695534514559
H        -1.72987976306846   -0.79038120333171    1.14679881109557
H        -1.06408767628615   -1.79925443248447    3.30118510882692
H         0.32949667661698   -0.44214908039572    4.87300631089894
H         0.96458349335844    1.84915694018677    4.22793436155441

