38
CSD_code = RILDUL | q = 0 | S = 0 | Stoichiometry = C12H16Cl2N2O3PtS2 | MND = 4
Pt        0.39506849258387    2.09569919297810    1.08306521920034
Cl        0.32499006414467    3.69892245329311   -0.50571647401153
Cl       -1.40660884423604    3.06072978287248    2.06018626328829
S         0.48476770713172    0.46664204996659    2.74759216931385
S         2.30014709332311    1.06899984454384    0.07834277267270
O         5.55870017121623    1.47717852761345   -0.15986714642593
O         5.25747899301679    1.90551981142318    2.65871179701024
O         2.61827488660433    2.24715857798062    3.79964432775117
N         3.07373638742705   -1.19390231352253    4.70019474212982
N         5.15125269279991   -1.07660089982189    1.27125995849533
C         2.18924080082066   -0.02726387277188    2.60952961510523
C         2.92077439410539    0.14570404759144    1.48401680598090
C         3.37964897602646    2.55183280902099    0.12532686451673
H         2.74948778555928    3.34806179380145   -0.28111174538429
H         3.60541495560139    2.73146104047206    1.17297457512845
C         4.64152895533363    2.38632040435927   -0.71478958972664
H         4.36930658453557    1.98370516997697   -1.69670507359158
H         5.10268849643059    3.37284611267374   -0.86273757810870
C         6.57056615597217    2.00381773422930    0.65767323403545
H         7.14129603948080    1.12523545253779    0.96341394683838
H         7.21569655938716    2.68415229244992    0.08027965360953
C         6.10141305269210    2.75439758757241    1.91228917357221
H         6.99288238602674    3.01953901195726    2.49889374468685
H         5.58881480122775    3.69025400158858    1.63905799134623
C         4.98154232140083    2.30929252019320    3.97688954389796
H         5.81515122499116    2.88911431857105    4.39139102629967
H         4.86230233782487    1.38545955435426    4.55150958880117
C         3.68302426027593    3.11761494678904    4.10544490378265
H         3.59399478225480    3.48268123282701    5.13726556654863
H         3.68003746497645    3.98416900203162    3.42819620749094
C         1.33815908587174    2.61469513260278    4.27234408169090
H         0.86718826591198    3.34517974569615    3.59500358523146
H         1.40786387452673    3.05430514333554    5.27721952298382
C         0.49525469219908    1.34999711423303    4.34291383685561
H        -0.54790228452567    1.59608811922646    4.53499654965628
H         0.87709605207206    0.65497695663233    5.09036844105677
C         2.70410001614614   -0.69004686058212    3.73912905423643
C         4.17662031887339   -0.48063753872282    1.35950284403044

