32
CSD_code = RIQYIZ | q = 0 | S = 0 | Stoichiometry = C12H8Cl3N3O5Ru | MND = 6
Ru       -0.74059739127369   15.78196457871601    4.48095092883351
Cl       -0.15582231445613   17.92711009122595    4.91494457574596
Cl        1.36043499145612   15.05773972167522    5.17418489433534
Cl       -1.55095866158546   15.55289369123293    6.65168598949813
N        -1.22994604816371   14.24079979628305    4.03133972704917
O        -1.61277056383179   13.23628770111677    3.60841395306969
N        -0.11373020576335   16.32316225821872    2.55102388396937
N        -2.46684071952484   16.72866970721368    3.74664811335677
C         1.08840078103587   16.08234972550774    2.05476832859851
C         1.51323108703167   16.62918628589825    0.85408454972718
C         0.62865972232904   17.44502906808761    0.15621950151940
C        -0.63326855174312   17.69295811195914    0.68765597941830
C        -0.98284970362572   17.12218967022519    1.90702162203313
C        -2.27779070099756   17.35143838343905    2.56973516193157
C        -3.27164404014776   18.17288420043802    2.04801443314713
C        -4.44951489180258   18.35729059760178    2.76567614449835
C        -4.61072549809687   17.71186729935339    3.98724788721249
C        -3.58346309722712   16.89618729109002    4.43535877708662
C         0.98370277383568   18.08010432593712   -1.15013972971954
O         0.23138003254590   18.77894542416435   -1.77417235409744
O         2.21852370288521   17.78198668008712   -1.54761980310622
C        -5.49585569056750   19.25685942281645    2.18932623095735
O        -5.38950042589574   19.79956387166472    1.12258075756487
O        -6.55552134331799   19.38745685973573    2.98372375954575
H         1.72812532945917   15.44894889658149    2.66130790691247
H         2.50199671406394   16.43138974983260    0.47466108453747
H        -1.30419777986767   18.33448385291660    0.13909653769925
H        -3.15828592774251   18.68702544613175    1.10704550273838
H        -5.50589291630473   17.84625147076458    4.57148507907762
H        -3.63133556410178   16.37421477348824    5.38590738554954
H         2.41967627832300   18.21257492402533   -2.39416639022574
H        -7.21181937692712   19.98208612256915    2.58578958153383

