43
CSD_code = RIVGAG | q = 0 | S = 0 | Stoichiometry = C22H16ClN3Pt | MND = 4
Pt        3.34128402878190    7.88527290890282    2.09600526583323
Cl        1.75711585939824    6.81817243375834    0.93217809212427
N         5.47110710127596    7.30347593989334    4.52563727226117
N         4.90831683178869    8.85799159863863    2.84136966992760
N         3.39476733301234    9.45722263118914    0.71246782769500
C         3.19662863191468    6.70823657309982    3.70304229177665
C         2.01209530853009    6.02325935180474    3.99919399822025
H         1.21559209343280    6.00625411640553    3.27011966785711
C         1.81763725417175    5.34347621306844    5.18728011584906
H         0.88952439815854    4.82081327222712    5.36484552200700
C         2.81235827378293    5.34975068045580    6.14681140611985
H         2.67589976184602    4.84326666120283    7.09095656006640
C         3.99292394901786    6.01702260615627    5.89523317535616
H         4.75588209088935    6.02672457473172    6.65886247438998
C         4.20006980453010    6.68433623160500    4.68541577678443
C         5.79392282961916    8.35344313003043    3.72843524206583
C         7.08392594151000    8.92394674639625    3.82624491509219
H         7.82140685229089    8.47113012754364    4.46574955540078
C         7.40154511044946   10.05031655544504    3.10976803947581
H         8.38247691640060   10.49083905957232    3.19567058746486
C         6.45070772660022   10.60670119738753    2.26398383807840
H         6.68009659340091   11.48076838404929    1.67936743312501
C         5.23014132503739    9.96666058927250    2.13014593999538
C         4.25382065807967   10.40342156261961    1.12761956803802
C         4.21090813335596   11.69481505978549    0.60530040316363
H         4.87942848800155   12.45528665408824    0.97547644605445
C         3.28081698381546   11.99706808116366   -0.37260627033032
H         3.22738693070835   12.99327617433463   -0.78500867195242
C         2.41880404578419   11.00035639213547   -0.80923519587648
H         1.68623564408110   11.19256708138179   -1.57628568374187
C         2.50722482063004    9.74688126090693   -0.23138451765243
H         1.85350765706492    8.93590070202631   -0.52605004758761
C         6.52054189074898    6.69518927551661    5.28405129409436
C         7.00740621815164    7.28608211655866    6.44521503975304
H         6.59496795312726    8.22816072879770    6.77655868320209
C         8.00637550975800    6.65895176486864    7.16779069466475
H         8.38133413903268    7.11671942311602    8.07100652277306
C         8.51887948228816    5.44518287551155    6.73853559976368
H         9.29684654503675    4.95805391955382    7.30648637096034
C         8.02889046771092    4.85543727430436    5.58550065818370
H         8.42453310382904    3.90858466554203    5.25128412740298
C         7.02969541008993    5.47694753929103    4.85674234618583
H         6.63176990286254    5.02443586566770    3.96121796593639

