40
CSD_code = RIXSAS | q = 0 | S = 0 | Stoichiometry = C13H23ClPtS2 | MND = 4
Pt        1.06237800326312    0.07615435218773    3.09316327231224
S         3.34218282324716   -0.16459206392157    3.51886523902085
S        -1.25001870325047    0.15433438058430    2.72172998588631
Cl        1.26845156677514   -2.09447659815808    1.99373932062559
C         1.10383382606431    3.04627708774601    3.22189624821544
C         0.97354279756104    4.39495378093585    5.22378597475677
C         0.83027827149020    3.23532733128854    5.96841739166009
C         1.10601110843447    4.28549490668539    3.84669683396130
C         0.97430832439469    1.88619465701524    3.98110718357626
C         0.98007220384881    5.74543554938721    5.87799447525007
C         0.82739313815282    1.98584571061911    5.36028393906643
C         0.65895901675592    0.74749214783235    6.19906415283490
C         3.98226884041493   -0.02946033986128    1.82372724567646
C         1.23979585063717    2.96603633753927    1.72322692156683
C         4.06291315146767    1.36542755641037    4.19278542642615
C        -1.34819003374333   -0.29954872204677    0.96486498086664
C        -1.70206864048579   -1.44971526892671    3.44511018151406
H         1.21178570668403    5.18131115176193    3.24888473800669
H         0.71877988415694    3.29904733294170    7.04273588270006
H         0.93310058330262    5.65337480912173    6.96025415453399
H         1.88351707801490    6.29424233963621    5.61407985114696
H         0.12504228781154    6.33264828731031    5.54393165093169
H        -0.36049957735086    0.68871567394687    6.57929591932616
H         0.86098230229107   -0.14797780941133    5.60048706018192
H         1.33486886584299    0.75897212124264    7.05294703248299
H         5.05944643197533   -0.17342629881983    1.84786177601570
H         3.51366357334781   -0.82053492354870    1.24400357041570
H         3.73392629076578    0.94274225745486    1.40783617083978
H         0.38809453480022    3.44463675744409    1.24190842098961
H         2.14238053849964    3.47428584527200    1.38407077271836
H         1.27530016749964    1.91801193354430    1.40181511241750
H         3.71562636111251    1.46827486193031    5.21505677701849
H         5.14459478408029    1.26344089155602    4.17411824947021
H         3.74234444867662    2.22547206466633    3.61439725480962
H        -2.37009699811461   -0.59468766729940    0.74245154114400
H        -1.08103777603972    0.57893596158228    0.38555742875552
H        -0.65052974820200   -1.11278627050252    0.77176108999172
H        -2.72637755395487   -1.68019795812171    3.16385947465718
H        -1.01427377936369   -2.20943719605307    3.07943372138126
H        -1.62444995086684   -1.35374497096686    4.52409357685212

