39
CSD_code = RODJOL | q = 0 | S = 0 | Stoichiometry = C17H14BrMnN2O3S | MND = 6
C         6.78425071940384    8.00694037704524    3.89911445983592
H         5.97012801761442    8.66089453477088    3.58379193122449
H         7.69543662295120    8.59692339774511    3.94872703082272
H         6.54999665866352    7.62534646320862    4.89329342051988
C         6.93323628788223    6.88570418775981    2.92549766248926
C         8.00150069411089    6.89149460125569    2.03070483557098
H         8.70345646190420    7.70973707732543    2.05557169377924
C         8.15608349863645    5.86178821732418    1.11738767563180
H         8.97762011705836    5.86332252635198    0.41793662515846
C         7.23442544175578    4.83545821905286    1.12761775740546
H         7.30206718630047    4.00443372311057    0.44399052974420
C         6.18455313312649    4.88890964063278    2.04451540224391
C         5.17790914893098    3.86346262050400    2.09885570232053
H         5.20605370810489    3.04686083028293    1.37986003498854
C         3.19054444720069    3.03708585399509    2.93803201899115
C         2.40252037684479    2.96931052572530    1.79019836476628
H         2.64199320469137    3.60560004916971    0.95025143232091
C         1.28137223194281    2.16283225220200    1.76297304638855
H         0.66426470096255    2.13837463338130    0.87860333978326
C         0.95000829891190    1.39952288824732    2.87051535068975
H         0.07245775410684    0.77155277854712    2.85454440501937
C         1.74574170974506    1.42923185581432    4.00103124110857
H         1.49602067985896    0.81388414181362    4.85058377222946
C         2.86488221088851    2.24647139828242    4.04672196424170
C         2.84013874799255    2.05679161730798    6.83306872913565
H         1.97197800716984    2.68994229755410    6.68058022142265
H         3.39436692633140    2.38471314371884    7.70690410559283
H         2.55765987408260    1.01446015259500    6.94550143295801
C         2.64741745897102    5.25493868671546    4.78302461072704
C         5.07544406511246    5.19520188780119    5.45324970395856
C         3.92905844100384    7.32774651393494    4.63510515950138
N         6.02967782006126    5.90276438845977    2.92403806340322
N         4.25437403909011    3.95299797055802    2.98856825818290
O         1.67327846169921    4.99037664683932    5.33517846243183
O         5.62541716165075    4.96262924953553    6.43617054887367
O         3.62581288144768    8.35727801251942    5.04658153723002
S         3.97423006623250    2.26003043080287    5.42866003969077
Mn        4.18425085036924    5.67748355547169    3.99366847776518
Br        3.08967188719477    6.58780265262147    1.97138095186227

