37
CSD_code = RURHET | q = 0 | S = 0 | Stoichiometry = C17H15IN2OPd | MND = 4
Pd        5.70500573371099    6.00461309210414    4.31990814031362
I         6.83009530699707    5.67823060645383    2.07308984364723
C         4.89344875510649    4.20194887332607    4.11486526447688
C         5.54225368814265    3.07452045636714    4.60807524183637
C         4.89140420509008    1.84769021847107    4.58179954073104
H         5.39525879708086    0.97826387865666    4.97634410956589
C         3.61148954304233    1.74902468944205    4.06485403461491
H         3.11086412818785    0.79208404793222    4.04986037661778
C         2.97859176874401    2.86769405608048    3.54943241944349
H         1.98669052369261    2.78599598204142    3.12812308726385
C         3.62331671726038    4.09591174339130    3.56810869971587
H         3.13376302325322    4.97452725660058    3.14718425147733
C         6.95460310758146    3.18985811931361    5.13599803268028
H         7.64591930583520    2.79864744216917    4.37316247643956
H         7.20298028107370    4.27214560117818    5.30146421783838
C         5.95655277994470    8.45342420140655    5.98308976335213
N         6.41993175160362    8.01683735941209    4.79898650837524
C         7.30954065682505    8.74226485296244    4.13423921713545
H         7.64156288492070    8.34390361704883    3.18207873610805
C         7.79831351058727    9.94782739467287    4.61038127580756
H         8.51720698584919   10.50677881216486    4.03390387148756
C         7.34696339889498   10.40393503597083    5.83948391376032
H         7.71327075954672   11.33100642450789    6.25412664361241
C         6.41868652500335    9.64983224502806    6.53403097933524
H         6.07242941153462    9.98342611928762    7.49856050779396
C         4.97379883101751    7.58879818908724    6.65702811726131
N         4.80237847428499    6.34933302177204    6.15273654599843
C         3.96929111594103    5.51018759771816    6.76506488348545
H         3.88577659307671    4.51493783768563    6.34440725811116
C         3.23939997048544    5.86151504011554    7.88589777018667
H         2.57948506354284    5.14363168170755    8.34492072731426
C         3.36797968025557    7.14817914667119    8.38945986930481
H         2.79730269296519    7.46852806410962    9.24756147868101
C         4.24827554752529    8.01479256553411    7.77045362881901
H         4.35927959622540    9.02053371998615    8.14131811144406
O         7.08285069098910    2.46608934569816    6.34356694947837
H         8.01463819418531    2.41138166391924    6.57693350648555

