51
CSD_code = RUYNII | q = 0 | S = 0 | Stoichiometry = C22H24Br2N2Ni | MND = 4
Ni        1.47055697058544    4.06711407836424    7.03759145010931
Br        1.74482525054771    4.76702742201102    9.15059374913002
Br        3.51836969690105    3.33420012531446    6.78223302454616
N         0.34707097027268    2.58514789091758    5.98942317739457
C        -0.63383289632965    3.24146050896788    5.37312894165623
C        -1.48290829501396    2.63095656492056    4.42538069463960
H        -2.25215580016248    3.22003091192512    3.95106793066082
C        -1.29468942340594    1.31307031269855    4.12576718795881
H        -1.90431769920037    0.81529012575249    3.38564012465000
C        -0.29974454101032    0.57982584681496    4.80716821275259
C        -0.07765714407887   -0.79116946407683    4.58295414847501
H        -0.68199196610623   -1.29750892168009    3.84428435081485
C         0.87519465579054   -1.46626296595786    5.29610930984989
H         1.04221382228681   -2.51781846370596    5.11886346713984
C         1.63127637911895   -0.80275461001922    6.27503090140654
H         2.36005255067847   -1.35465753934900    6.84804082238703
C         1.45146925401670    0.53149706380521    6.51125410570813
H         2.02180058614854    1.04046338157719    7.27366685456492
C         0.50209337126768    1.26318752123404    5.76823895559880
C        -0.78146304414019    4.62159976823345    5.75445584975199
H        -1.54952403814077    5.23012795053383    5.28013886078384
N        -0.00753878460718    5.11303359431860    6.65900669420845
C        -0.20154294874199    6.44007573538951    7.08681411535762
C        -1.35805614768446    6.76902181451730    7.80811080314955
C        -1.53540432137454    8.09272019145592    8.18443548193484
H        -2.41455010993876    8.36777938980563    8.74558133161352
C        -0.60792809747258    9.06192614345645    7.85745207411105
H        -0.77392355172731   10.08797877369769    8.14848682613217
C         0.54499672045671    8.71402191428556    7.17968004777115
H         1.27661956602461    9.47121682113824    6.94727940024722
C         0.77781024111450    7.40187266893907    6.80061995977893
C        -2.34868802050077    5.72202060643340    8.26281883553383
H        -2.06604640178573    4.74352091657264    7.86113464655591
C        -3.76358109921453    6.03478378502384    7.77155475030720
H        -4.44154098611584    5.23439430404866    8.05963629664559
H        -3.78637991527672    6.13165792911398    6.68717478145777
H        -4.13040965896919    6.96183927772730    8.20294990923461
C        -2.30328172539568    5.61476603208582    9.78985798230146
H        -2.96249472273622    4.81818689023360   10.12723111465577
H        -2.61875374346556    6.54502474409280   10.25449890603318
H        -1.29059220007168    5.39266283540356   10.11888156044029
C         2.05325311262816    7.03506465736615    6.07633567601222
H         2.12493890621844    5.92734175623662    6.00449681282122
C         2.03760108472211    7.58230308240209    4.64877270674002
H         1.17772508726384    7.20474747340761    4.09647108917954
H         2.94267649594988    7.28494742946501    4.12390919662948
H         1.98568522686999    8.66866902886715    4.65899827688350
C         3.28809265263813    7.51008499633993    6.84218249133326
H         3.25081412112541    7.15870747649612    7.87077302646452
H         3.35663191148141    8.59435537822923    6.84747599708824
H         4.18582864856826    7.11074684516111    6.37564708938629

