50
CSD_code = SABTIB | q = 0 | S = 0 | Stoichiometry = C24H21ClN2PdS | MND = 4
Pd        2.36718755574699    9.98270342774591   16.62933725919360
S         4.63005847538236    9.74592153459092   16.74687207683121
Cl        2.41526294838702   10.93085684425590   18.73507328892008
N         0.36643859749026   10.20959272185964   16.18355677092399
C        -0.00985340693576    9.58921720654310   15.11270182728942
H        -1.00032801191680    9.75364708962537   14.68736880133948
N         3.06155760486493    8.02599433350180   14.32873253969688
C         2.24431468681520    8.85484010380989   15.01887176355530
C         0.56237393862968   12.53358160685477   16.77177484244973
C         2.33408961412433    7.36421488390577   13.35155223159770
C         4.77500526680386    8.26213768238208   17.73916158785445
C        -0.35655819706762   11.32593986563895   16.72338423639998
H        -0.67067551717055   11.09185120853225   17.74806346054757
H        -1.25113809303184   11.54771009530062   16.11964920409289
C         0.41128001318010   13.48288494279797   17.77298000323503
H        -0.38014278217022   13.36866849294339   18.49941866432359
C         4.44843129923771    7.79886955373021   14.65036020355894
H         4.95716471036573    7.43047148935570   13.75336993633370
H         4.53056818232427    7.02478636580302   15.42878124237543
C         0.04633674927327    7.28785364107371   12.54208792633679
H        -0.98315620868389    7.61016756974101   12.58891407539573
C         0.94625108493777    8.74596614932201   14.50308694550185
C         5.04152460318150    5.99557779161755   19.29291183175802
H         5.14571907801076    5.11091002376702   19.90268665497831
C         0.98691634988884    7.80344883891985   13.42602317561289
C         5.16568731970937    9.06240896070154   15.11695160480734
H         5.00574927548668    9.88058834991255   14.41314464432736
H         6.23342305411258    8.86018919563687   15.20279009028154
C         2.47498429008640   13.75222920605435   15.95027032093167
H         3.27885262914951   13.85669421868038   15.23465802390383
C         2.73653461467573    6.42576323130048   12.41633310217920
H         3.75906906100952    6.08104867825025   12.36026245156921
C         1.59753528827606   12.68225707871254   15.84407111969026
H         1.69127021873738   12.00110294625383   14.99172760540609
C         3.63833165118007    7.60536979260150   18.19261783145891
H         2.63864919382381    7.99494967255357   17.94851163659656
C         6.04061271568470    7.79861348902498   18.06575444512816
H         6.91414953382074    8.33274231239198   17.72309738852683
C         1.28226741087440   14.55327605047627   17.86540451152901
H         1.15864870429190   15.27728528411039   18.65701300575073
C         2.32419416268992   14.68278182515719   16.96387860222414
H         3.01831468564470   15.50551600551890   17.05156752946689
C         0.45673951513098    6.35735522307679   11.60891299580082
H        -0.25978843818435    5.94632106772271   10.91308349119205
C         6.17039292349748    6.65866873948442   18.83931541353428
H         7.15373334297592    6.29462283504099   19.09588026833369
C         1.78173346224837    5.93207834650629   11.54644981014503
H         2.06850177025459    5.20033218491572   10.80592707108138
C         3.77989876412234    6.47064457652808   18.97364183843052
H         2.90078630904499    5.95884726577221   19.33451464761219

