35
CSD_code = SARQEJ | q = 0 | S = 0 | Stoichiometry = C14H12Cl3N5Os | MND = 6
Os        6.70760028961011    2.09132213831445    2.21121048128951
Cl        6.70764982248431   -0.16319979420558    2.21429072759112
Cl        6.04787917127179    2.01802086792419   -0.08518813298281
N         6.70729135697425    3.75425798394286    2.20921225836131
N         8.69335918234383    1.97928280970624    1.56616233863324
N         8.96977543545577    1.76956120035136    0.26767593784865
H         8.19314367828813    1.74743894850784   -0.39903516663114
C         9.82442271279903    1.99506838603982    2.24498902559852
H         9.84321934650974    2.14856821357929    3.30774867081499
C        10.90298539001463    1.79021783409099    1.36086025116835
C        10.30116272586169    1.64948165027214    0.08289520896739
C        11.06327830640275    1.42840692641404   -1.06502837292411
H        10.59534013277694    1.32227590808900   -2.03039025491307
C        12.42494776467265    1.35464462298958   -0.90282619075213
H        13.05301454560490    1.18522116887398   -1.76423722649841
C        13.03324765278775    1.49325713951554    0.35728713063751
H        14.10847028734945    1.42600020238816    0.42169678866993
C        12.29582017848814    1.70957901522510    1.49265351583243
H        12.75999143181764    1.81571609194505    2.46016162322807
Cl        7.36586344613893    2.02682814258753    4.50866514218386
N         4.72223754269903    1.98000671050769    2.85763966960664
N         4.44620095121520    1.76873200289658    4.15595933761968
H         5.22287186827621    1.74685901867558    4.82258497915953
C         3.59090715043476    1.99694494498674    2.17924873214308
H         3.57178441051280    2.15174406991678    1.11667765714980
C         2.51258006729882    1.79132711217063    3.06351226517897
C         3.11482901568720    1.64890867634096    4.34108628872469
C         2.35308309387030    1.42666005791315    5.48902100343538
H         2.82135824601063    1.31930212888868    6.45407765014170
C         0.99133128374209    1.35342294513187    5.32725392360769
H         0.36356118097221    1.18316920511255    6.18871634604621
C         0.38258915545979    1.49372567469054    4.06754649853736
H        -0.69267660257014    1.42678323180006    4.00346489511147
C         1.11965384327923    1.71121596565045    2.93215737262381
H         0.65512593545413    1.81854879876617    1.96494962479113

