49
CSD_code = SEBHOX | q = 0 | S = 0 | Stoichiometry = C24H19Cl2N2PPt | MND = 4
Pt        7.30212665668057    7.64329456564277    2.50634240076249
Cl        6.04006998170935    5.95820697637377    1.77371013941566
Cl        5.48306118884208    8.81694666671137    3.23851452618474
P         9.20310190297109    6.53264985457308    1.94066929022095
N         8.52816454259051    9.15165925589614    3.06661899584958
N        10.13734210605572    6.62347761547795    3.30749670222376
C         8.14262504592284   10.37950079692572    2.69880986318291
H         7.16259944977251   10.45347346537271    2.24499607533747
C         8.91575433806479   11.50419076457323    2.89832313272551
H         8.55194726958895   12.46683717603303    2.57819604236853
C        10.15556786158312   11.36906509036524    3.51006326549165
H        10.79506212937664   12.22254812788654    3.67166772097113
C        10.54871256881875   10.10763968998175    3.91159961647171
H        11.50605256796849    9.95149741697870    4.38421764725066
C         9.71878994292681    9.00887101299861    3.68241829394298
C        10.24214683663156    7.67503563374196    4.04416900221138
C        10.98304990896797    7.54666007830621    5.30003588644766
C        10.68173891771291    8.35061659875581    6.40164072389444
H         9.89816383525579    9.09043293045382    6.32983628934181
C        11.35674875381552    8.17591661464840    7.59467433761050
H        11.11186781130151    8.79669905465732    8.44339757865013
C        12.33892576845838    7.20464019011095    7.70655480297100
H        12.86591721241349    7.07478985252723    8.63979796765985
C        12.63704012663504    6.39472548509933    6.62129107350812
H        13.39722616892312    5.63295930910518    6.70902473119364
C        11.96172362608196    6.55869450048717    5.42866415893040
H        12.18350829520297    5.93658817004579    4.57539202747103
C        10.13626099814012    7.42515317558044    0.65393259832485
C         9.49968839025601    8.42387899485247   -0.07104853259525
H         8.44691118975300    8.62304098697951    0.11491305166074
C        10.20261809786242    9.13344491827288   -1.02837205243056
H         9.70996361975292    9.90859653020579   -1.59684894826368
C        11.53872885342637    8.84539874171194   -1.25720772038667
H        12.08810675594957    9.39976119479416   -2.00355298928417
C        12.17302765727793    7.84611461592931   -0.53486886566667
H        13.21325332990366    7.62323830813328   -0.72064017717191
C        11.47454620925898    7.13266817755671    0.42190899494027
H        11.95290053002104    6.34808464715436    0.99189759503129
C         9.37695379853037    4.79510071320506    1.49278780918757
C         9.00384131165940    4.40374097910316    0.21095191699436
H         8.65553240865739    5.14901842768479   -0.49177612496613
C         9.07315238416695    3.07066428442622   -0.14536872424237
H         8.78360209918769    2.76128068337224   -1.13875453932269
C         9.50558784605366    2.12944823406307    0.77651669755660
H         9.55509537469472    1.08718031728477    0.49739397002455
C         9.86360254910393    2.51902466761501    2.05708471390810
H        10.18993485521155    1.78023185915910    2.77471302993810
C         9.79308407806774    3.85117303851957    2.42269442187279
H        10.05547284879151    4.17293961066232    3.41992158260093

