61
CSD_code = SEDGIR | q = 0 | S = 0 | Stoichiometry = C20H31Cl3N3PSi2Ti | MND = 6
Ti        0.92987611460729   12.50923083980198    3.06673472007516
Cl        2.27630928291511   13.40228831689157    1.54899767455425
Cl        0.18259408637893   14.54297304301866    3.68139459758740
Cl       -0.76425542069827   12.13915566054744    1.75993513941535
Si        2.43394520677492    9.76029622005704    1.74027899449240
Si       -1.02471294983821   11.96606988235392    5.83548966784421
N         1.67811186832720   10.69125752984547    2.99720237373484
N         0.31454562102556   11.67833123005494    4.76605956304026
N         2.78499606533318   12.97635234033448    4.44284985581622
C         2.99054109757026   14.07702792121728    4.69855187245794
C         3.21412288346037   15.45174113064542    5.00227714557093
P         1.11860804422263   10.31494558640954    4.46154736130644
C         4.30439793176725   10.15890755152497    1.81296109864114
C         2.11351913393498    7.88226222163662    1.94845740594723
C         1.64226739019503   10.28744172842896    0.08698533944012
C        -1.29241414498686   10.43052073723513    6.94436536694591
C        -0.59870335936775   13.46684628981189    6.94649634616284
C        -2.56905072312550   12.31017323591347    4.76835383093943
C         0.07440082363442    8.83340692063303    4.42662227805343
C         0.23134320012025    7.74078947167213    5.26624383321201
C        -0.63414556776135    6.66546139762464    5.15536859431458
C        -1.65109355419629    6.68486509138053    4.21492514265209
C        -1.80888440143694    7.77980708481275    3.37764120732756
C        -0.94546074848275    8.85467328642647    3.48097299537446
C         2.46040189365155   10.04513416364651    5.66648042705800
C         3.41565659707265    9.05737897276534    5.45947311318385
C         4.46187990901433    8.90825657628941    6.35223340951986
C         4.56095043789743    9.74725973590248    7.45110972119470
C         3.61651123413256   10.74063806497437    7.65347983078768
C         2.56980976201605   10.89227473950104    6.76096234927652
H         4.10438394814783   15.80406550860854    4.48236270255448
H         3.32761895568488   15.58942652271406    6.07672865120509
H         2.34017764576320   16.00558540144626    4.64926440780594
H         4.84197979818360    9.67267056057456    1.00592876163357
H         4.75600466926329    9.85003726681987    2.75236283399122
H         4.45101092148840   11.23196525921975    1.71489024212922
H         2.31033831691026    7.52118892933069    2.95265318413542
H         2.74821296612718    7.32440264218526    1.26855307000772
H         1.08274850633803    7.63262444347188    1.71544909260803
H         1.82728309343143   11.34016914144774   -0.11146802526565
H         0.56363034639078   10.14268202866141    0.09653967657947
H         2.04973966191540    9.71713851253828   -0.74169050023273
H        -1.86522079106165   10.69320155707762    7.82669476633584
H        -0.34698247203679   10.00842153070336    7.27429712375191
H        -1.83601011020004    9.65080783748371    6.42059318023791
H        -1.47999217019653   13.77894187237603    7.49662060838277
H        -0.27174701814687   14.30626596993297    6.33992758639777
H         0.17891475372090   13.24956277633469    7.67424099440009
H        -3.42753890008276   12.56669151657169    5.38045686712418
H        -2.83653675130096   11.45245598330726    4.15487412016434
H        -2.37824752740205   13.14491302490823    4.09601031965251
H         1.02304933261298    7.73401958217306    6.00266146309102
H        -0.51587404125814    5.81092883704591    5.80539850915353
H        -2.32355787810340    5.84373125341213    4.13414056632038
H        -2.60311449323338    7.79163381709891    2.64614931771933
H        -1.04131565559683    9.72234814406033    2.83598282882417
H         3.33584999713298    8.41376683730492    4.59540455296947
H         5.20283554500732    8.13885353284346    6.19138518576793
H         5.37840957917781    9.62899729754903    8.14686168157970
H         3.69847395722663   11.39690289129521    8.50768267052991
H         1.82580809983824   11.66573254998735    6.89369230456330

