33
CSD_code = SEGPOK | q = 0 | S = 0 | Stoichiometry = C13H13I2IrN2O2 | MND = 6
C         1.83892685030234    3.80777395241535    0.78291839403489
C         1.96359757461932    5.27899385081759    1.05732020154254
H         3.00088318133632    5.59584478984867    0.96152368726097
H         1.62716172945182    5.50371864459088    2.06804980903575
H         1.34926351106174    5.82578333704530    0.34241567473487
C         3.65527508991908    3.78532188129676    3.01309116846097
C         4.81709510359728   -0.13037364919859    2.68200826015813
H         4.86729937508781   -0.10296399764732    1.60200499822822
C         5.52943527826045   -1.08531307901827    3.38552290048290
H         6.12917718741570   -1.80775878438553    2.85523577451992
C         5.45724519910204   -1.08352886549816    4.76907059960605
H         6.00282929136954   -1.81062108573996    5.35162021100565
C         4.66995576671502   -0.12536195745078    5.38680868154048
H         4.58036461292843   -0.07961930728912    6.46026203566082
C         3.99083802439283    0.78747979928935    4.59892989444219
H         3.36269382952142    1.54130501356306    5.05350894988130
C         1.66913428079261   -0.27225737179842    1.52635560740152
H         1.64020874226818   -0.20116824061803    2.60455027331104
C         1.22171377502847   -1.42718474087702    0.91292673416964
H         0.85430003682688   -2.24139662736429    1.51694875763949
C         1.24793048921837   -1.50665839736377   -0.46966208292450
H         0.90101527628966   -2.39147894621060   -0.98127849094557
C         1.72975231025355   -0.41690175781832   -1.17423824100185
H         1.77458913003566   -0.41878395163733   -2.25122473852740
C         2.16137120781157    0.69776344795618   -0.47795513044618
H         2.53606071684529    1.55153219055678   -1.02291475024695
I         5.00263612707318    2.75218295621620    0.29804787034270
I         0.74222037397185    2.51645558997075    3.59038688208125
Ir        2.88321032329152    2.48187247391390    1.94487295222679
N         4.05999437523314    0.78905097157401    3.27115499346597
N         2.13506615801094    0.78004812651393    0.85216001418363
O         1.16541312530750    3.32843909024707   -0.07520344993015
O         4.18084194665702    4.50880464410323    3.72668155861052

