31
CSD_code = SEPYUI | q = 0 | S = 0 | Stoichiometry = C10H14Cl2N4Pd | MND = 4
Pd        1.79121122261849    5.21431075777596    5.70930491241494
Cl        0.10869546341526    6.18864226108589    6.87735735002762
Cl        1.62837911150956    3.28682962035395    6.88188039070062
N         2.19493713937055    8.09184569617929    5.17799877622077
N         1.76198447280947    7.10837684452252    3.31457056759717
N         2.67520317442213    4.16550540225774    3.20098584655091
N         4.22228459424674    3.66864062554044    4.60998112224727
C         1.94767188158353    6.88916547193383    4.63660600571381
C         1.87488517133934    8.45344431980287    3.04712853952370
H         1.75610860702655    8.85313732476959    2.06121214310094
C         2.14350861191738    9.06698792177962    4.22170407316603
H         2.30020120688164   10.10231894786971    4.44430720055165
C         2.47968056025792    8.31562247375406    6.57114469081053
H         2.73628135203421    7.35039871276064    7.03376972686883
H         1.59538495824541    8.70504446176074    7.07859677460482
H         3.30813794374766    9.01752147221621    6.67352327325450
C         1.53309531861655    6.15155097740212    2.24954712417181
H         2.35441879485062    6.24677086634842    1.52630199709787
H         0.59906788404908    6.41978802437714    1.74245659101190
C         1.42838939580006    4.68765205741357    2.69526037511853
H         0.66849394882942    4.59624547675326    3.49710212905207
H         1.11682112396424    4.08900519198994    1.83555321677542
C         3.62074195992603    3.44983678876996    2.51170077721111
H         3.52543412976126    3.21238512692904    1.47194422808104
C         4.59265247021330    3.13676310163792    3.40157854752542
H         5.49836746855569    2.58084322789444    3.27214216272333
C         4.95043959108381    3.55491623438878    5.84390899496566
H         4.29037115091703    3.89317437628896    6.65025775354223
H         5.85340034954228    4.16872625877554    5.81813670515344
H         5.22394325201337    2.51590744825598    6.02453514801104
C         3.04940769045108    4.29874252841231    4.49190285620464

