58
CSD_code = SICLUN | q = 0 | S = 0 | Stoichiometry = C27H25BrN4Pt | MND = 6
Pt        7.40255831417468   -4.80936714673293    7.98663888307626
Br        7.66610933230222   -7.36321542344255    7.79984643557799
N         6.22847012796753   -4.98408650724036    6.09876940657002
N         8.95306577064332   -4.80347611061404    6.38841433467548
C         4.92546836822907   -5.08947496099893    5.95706495272454
H         4.33598428889505   -5.09730830687638    6.86411131137789
C         4.29498993030072   -5.18374258343114    4.71595934514863
H         3.22117939737646   -5.26942095478246    4.66676521894841
C         5.06545943072472   -5.15999061953764    3.57940822276524
H         4.61949426856098   -5.22376954011863    2.59764974387104
C         6.45947556886363   -5.05497633024440    3.69900401616937
C         7.00781700548210   -4.97281162370966    5.00028019848792
C         8.43327694556258   -4.88685206824711    5.15106574409348
C         9.25272690060588   -4.89882775274365    3.99950900631659
C        10.64257409389121   -4.84821256337251    4.18195692484773
H        11.28996901261986   -4.84516159728537    3.31744174126911
C        11.14777362624172   -4.81078763287762    5.45818231418771
H        12.21000409257755   -4.78994040354654    5.64219180217546
C        10.26004706868077   -4.78669284366425    6.53375521711267
H        10.63462818557480   -4.75275881291970    7.54741053393478
C         7.31709382824021   -5.02427535566300    2.56403500102761
H         6.86524337558018   -5.06527983224577    1.58434752224111
C         8.66013628690475   -4.95254257591583    2.70707567881282
H         9.31194382435974   -4.93731557060516    1.84661015764505
C         7.06274739983259   -2.70405953996043    8.04455071819829
H         5.98155364551128   -2.55225344598126    8.03115229523822
H         7.49276884444632   -2.28346658860608    8.95268255389802
C         7.70047668074838   -2.20377562698705    6.83424108651950
C         9.06759405479670   -1.87535700394873    6.80928585627576
H         9.61615244587763   -1.85500121592513    7.74049304350938
C         9.71766821876506   -1.63127012003230    5.62612159042397
H        10.77763037788096   -1.42760982234632    5.60159303225867
C         9.02463403351924   -1.71215388475190    4.40839341802840
C         7.63026078434408   -1.88237056346853    4.43570900373175
H         7.09119916025934   -1.85286842599444    3.50027994339780
C         6.98721489439139   -2.10569318608750    5.62528423440953
H         5.91289291238876   -2.23930228368672    5.63840357919983
N         9.77829672688121   -1.65623204356715    3.26616582038565
N         9.18507833689515   -1.99296550412198    2.18596976550094
C         9.95930500734360   -2.07181494607046    1.05019615752084
C         9.28533458047070   -2.09663840738925   -0.17583605832870
H         8.21350740029705   -1.96845211557719   -0.17935604974743
C         9.99068834919961   -2.25778158424329   -1.35001694004126
H         9.46813653537845   -2.26447385256761   -2.29553161089155
C        11.36846935472010   -2.41888299194634   -1.32089969518030
H        11.91562606472688   -2.55537764095016   -2.24186183778596
C        12.04317639827749   -2.40976675648283   -0.10833923933394
H        13.11586293447182   -2.54030526580488   -0.08890170024660
C        11.35103811064437   -2.23406568879634    1.07076060760736
H        11.85354150959259   -2.22851722142934    2.02691478099053
C         5.90548884215787   -5.05996273610083    9.38140637112749
H         5.62469074901378   -4.15314729613237    9.91749304960548
H         6.20916626322326   -5.81265835036547   10.11103688265663
H         5.02732680274663   -5.44719243387138    8.85743333202508
C         8.69584188383623   -4.64113152420007    9.58134243279729
H         9.47235419650954   -3.91357399843689    9.32998986252213
H         9.16269133669536   -5.61445637159442    9.74790932263396
H         8.22739612002902   -4.32503444584818   10.51334067798551

