58
CSD_code = SIQHUW | q = 0 | S = 0 | Stoichiometry = C22H30Cl2FeN2O | MND = 5
Fe        5.63821666658510    8.01825688605030    9.77026254455568
Cl        4.32849148981540    9.33211053793704   10.81467258462190
Cl        4.82733075787294    8.14788256648437    7.85021725607374
N         6.48367232422659    7.58617094652046   11.29876467937777
C         7.58360222868136    8.31902463362318   11.64409560835474
C         8.26952742711437    8.08952739624741   12.83887522127005
H         9.12686134232444    8.69307468087385   13.08822318867019
C         7.82446862789615    7.09704978414705   13.68040388952974
H         8.32751324776409    6.89268758099013   14.61188866788098
C         6.69028378546626    6.36057220778713   13.32186362004790
H         6.31537546071537    5.59838466919065   13.98481872719629
C         6.04108772367108    6.63267789054640   12.13780383696258
C         4.75498403429192    5.92411482048553   11.74323730261388
O         4.47462491847429    6.23540828230468   10.36401332511237
H         3.51574195150964    6.24919381548365   10.24620316064414
C         3.61621498917144    6.44474190366320   12.62341099159346
H         2.68653217940719    5.93270046979615   12.37883814762917
H         3.49591488633591    7.51439189656170   12.45424421353548
H         3.83818813142950    6.27907277320861   13.67342320611597
C         4.89597058227770    4.40032271422170   11.84770639098310
H         3.99063000288879    3.92512596232106   11.47635248448159
H         5.05126208624144    4.09200555269282   12.87610240495971
H         5.73581408402142    4.06365066038583   11.24499529109634
C         7.91613867631171    9.25735688532407   10.61922376472596
N         7.09955275947820    9.21635042342738    9.59581494299039
C         9.12102523252256   10.14111962621520   10.70377823745863
H        10.00407161105374    9.55884587635469   10.96217423146837
H         8.97086748542046   10.89223650385613   11.47904787937608
H         9.28776606303916   10.64519411800975    9.75493521198422
C         7.37432193009038    9.93045397133636    8.41357973705167
C         6.98031966521984   11.26455881499768    8.26705361837364
C         7.28932813804578   11.91634218580498    7.08120797279921
H         6.98935342752835   12.94406952182525    6.94715205523329
C         7.97430552234451   11.27036281118643    6.07103964359604
H         8.21711275684231   11.79652312620670    5.15962887487088
C         8.33132625247280    9.94245065934268    6.21687689666452
H         8.84948542175121    9.44143669167066    5.41391697876114
C         8.02338331349907    9.24649837412417    7.37472639478153
C         6.18860269647346   11.96265344738367    9.34438964273899
H         6.11884122457309   11.30453269885108   10.21468812202814
C         4.76488496253217   12.20541437388606    8.83886373890788
H         4.15779917604288   12.63590778870509    9.63111633550252
H         4.31591107686156   11.26174208956547    8.54047616133668
H         4.76220415882152   12.87823969082353    7.98432797154690
C         6.84833993753289   13.27106874627704    9.78239747345804
H         6.29975097674775   13.69626014868359   10.61956204210098
H         6.85188746010805   13.99878370295602    8.97462637659311
H         7.87717243639185   13.10049140115935   10.09433017926054
C         8.38251946613996    7.78438162033663    7.51697194345084
H         7.87613459693366    7.38960377256392    8.41491907586962
C         9.89285006348736    7.61799005705403    7.69836307376223
H        10.14624289509594    6.56643122610676    7.81654314214829
H        10.23701579847807    8.15781360988420    8.57813953846270
H        10.42275334373207    8.00440551987071    6.83064221462330
C         7.87728915565890    6.97188724881925    6.32478772454853
H         8.05531483268160    5.91180619750781    6.49499230279341
H         8.38296597718599    7.25876364047733    5.40683326742559
H         6.80915258071361    7.13157479787982    6.20035649000189

