26
CSD_code = SIWWIF | q = -1 | S = 0 | Stoichiometry = C6H14Cl3OPtS(1-) | MND = 4
Pt        7.26568873633468    5.23462838714985   13.22503987434902
S         7.79882820870673    4.10911544728537   11.31840366491496
Cl        8.41462396177069    7.07836205430788   12.54319143320149
Cl        6.68160035818282    6.25325047105933   15.15178625329187
Cl        6.12169757088020    3.28341533796791   13.80860741598474
O         8.60737185464658    4.65592204208212   10.23749260669702
C         6.26341097197915    3.48490334125872   10.52514323162632
H         6.55149317762083    2.97268558883657    9.60932895707430
H         5.79782791724494    2.80513044544629   11.23443400662751
C         5.38488133217715    4.69592916903562   10.26470537202062
H         5.25410428539591    5.22762853950161   11.21662214504002
H         5.90320813197590    5.36885438567282    9.57770554265373
C         4.01959493512198    4.31562833192386    9.70530342260936
H         4.12629514931594    3.78825474250240    8.75839149793845
H         3.41580141110422    5.20479124638648    9.53943929165234
H         3.49584903280464    3.66780483158835   10.40466651848107
C         8.57764178376686    2.50500035768988   11.76044685653380
H         7.83957762369660    1.94384949043568   12.32835505623841
H         8.83905368326015    1.99888030827593   10.83322781904714
C         9.79374041992401    2.83247364307423   12.60919276066827
H         9.45842928291642    3.44855037389203   13.45424679704303
H        10.48817281936612    3.43256686141242   12.01655527116923
C        10.48922967732486    1.58379095693843   13.13692087343156
H         9.80287636704742    1.00373207698103   13.74978043922870
H        11.34927334565686    1.85593346273095   13.74435717800258
H        10.83112796177756    0.95831810656328   12.31345571447432

