45
CSD_code = SIWYEE | q = -1 | S = 0 | Stoichiometry = C20H16Br2CoN4O2(1-) | MND = 6
Co       13.67507436991332    2.57161703454112   10.61556729528058
Br       14.47404636974659    0.97251205703202   12.25020588787404
Br       13.08354930695245    4.00199526096500    8.75221859734780
O        15.16645386761309    5.79640050841728   12.40762790452277
O        10.02630993234193    1.09199254681787   11.19175618048947
N        13.13032014152618    1.05686580589693    9.46573405793165
N        11.92525725843288    2.42064752377483   11.24052960918487
N        13.80622449607843    4.03188107358208   11.76729052559606
N        15.57758185073662    2.98686072753978   10.27391038413304
C        13.73523987743819    0.46082029808083    8.44366410623611
H        14.68574319882071    0.86838696436512    8.13090512762843
C        13.19605269948083   -0.61329550505801    7.76105638294405
H        13.74490576403851   -1.05530658762406    6.94376131793339
C        11.95276241852013   -1.09984105200949    8.14164534414820
H        11.51043067010505   -1.94664958882320    7.63705002889572
C        11.29210846225096   -0.45314939063209    9.16461980290699
H        10.30782826813420   -0.73639584164661    9.50377078264893
C        11.90185054068587    0.62364835112089    9.79713743318330
C        11.16582261004537    1.39976178656277   10.84325878075652
C        11.59422997928758    3.37947496430595   12.18208339395792
C        10.37262072624289    3.51442224998360   12.82625805917811
H         9.58339299769389    2.81534111056227   12.59962252795007
C        10.17674985667353    4.53225024869867   13.74821281083794
C        11.21169951040750    5.42977565292886   14.03020422098865
C        12.43634281334062    5.30008454373085   13.39150770145624
H        13.24265414524530    5.98539627084749   13.59935374744986
C        12.64042398545002    4.28316016903422   12.46968949980410
C        14.91720986339726    4.76840184484478   11.77858373937094
C        15.93824866340812    4.12259248630063   10.89580968676336
C        17.21698276635141    4.65731155702681   10.79466920909116
H        17.41385018062324    5.57841974158191   11.32084908178407
C        18.16932699497109    3.99754280238417   10.04694696354619
H        19.16929737853162    4.39253956951589    9.94027256198481
C        17.81158470554189    2.79413374949457    9.45438659581656
H        18.52384642275162    2.21482429879373    8.88719468162142
C        16.51718586511527    2.33194866295358    9.60004412099571
H        16.23985754936751    1.37914330843193    9.17270413056206
C        11.01120865072853    6.53798535553062   15.02300538925451
H        10.19555941108429    7.19223154115576   14.71256328882589
H        11.91640847124556    7.13322145358499   15.11390217023534
H        10.75934883503030    6.13652349481300   16.00542947472217
C         8.84797130002494    4.65888609983950   14.43547708220476
H         8.96201424195098    4.57089926547254   15.51667613046243
H         8.17002715297180    3.88018592945172   14.09485685263980
H         8.39529542970261    5.62915165582875   14.22708732885425

