48
CSD_code = SOFGAW | q = 0 | S = 0 | Stoichiometry = C20H21ClN2O2PRh | MND = 4
Rh        3.25706924053191    8.36268689631424    3.09158805667130
Cl        4.73009014299727   10.06546332025765    2.83916621037837
P         1.52905141360103    6.96622629673002    3.41552161861324
O         5.31860428573903    6.59100141038195    4.29757638139833
O         0.05984539283176    7.67121251527392    3.65600242167426
N         1.87990138977206    9.56580833326009    2.21030246030623
N         0.90799722236686   10.18125136903462    2.89067575081853
C         1.73675716908165    9.87260624046058    0.93132752964838
C         0.62909672619597   10.72160682178693    0.78924597553975
H         0.25948387055533   11.15218490642806   -0.11867134262849
C         0.11812565145354   10.89553671524970    2.05832098531941
C         2.66059463794082    9.32086692027258   -0.09264695177376
H         2.14795188443956    8.58814202664728   -0.71606460152874
H         3.49972363107796    8.83435801024229    0.41847508437778
H         3.04456374568632   10.11402333921327   -0.73038897129075
C        -1.04083964352239   11.69418424590001    2.53115554848029
H        -0.73056765005862   12.41571521962104    3.28691606045620
H        -1.80828141334809   11.05328093628913    2.96502080954486
H        -1.47411140696108   12.23450062657002    1.69455206887619
C         0.77865751360353    9.93755389905349    4.29823330889631
H         0.38676779871821   10.82044889876996    4.80676216642989
H         1.79738295583889    9.71714296944108    4.66948247882618
C        -0.14249355969274    8.73121626700884    4.56484630165969
H        -0.00353561725684    8.39285936321551    5.59891745636852
H        -1.19096868293701    9.01943763102753    4.42818176259817
C         4.52973950794394    7.28917501651440    3.84009088411571
C         1.57326103498769    5.79387709612523    4.82403886359866
C         1.00780265787363    4.52656838923411    4.80373732320056
H         0.53742120993993    4.16002324234143    3.90261549497054
C         1.06023727549663    3.73236268844608    5.93626519073236
H         0.62723721134582    2.74280136557170    5.91787608203825
C         1.66808122379550    4.19997725660371    7.08992416406108
H         1.70687002754337    3.57520680868886    7.96995169575801
C         2.23445785342082    5.46452324720741    7.11379008543085
H         2.71557700981406    5.82696500211899    8.01016252166652
C         2.19058469153154    6.25612709954955    5.98129232122548
H         2.65450462393798    7.23803381587623    5.97399600564275
C         1.02720314769590    5.95486529383226    1.99762101593506
C        -0.26777159820470    5.50114564862651    1.77794536074433
H        -1.04752892303846    5.74664804534697    2.48336898181241
C        -0.54781946005286    4.74945222934544    0.65053242301286
H        -1.55400645600403    4.39615589127000    0.47641387887297
C         0.45691183905644    4.44771434652175   -0.25528010702541
H         0.23109232392956    3.86000385328971   -1.13292443783184
C         1.74772129645004    4.90558644945305   -0.04213398182081
H         2.52761715198009    4.67781754887351   -0.75364847854234
C         2.03008451606301    5.66210151922896    1.08016309565502
H         3.02995513585183    6.04845296748106    1.26150304708603

