36
CSD_code = SOKPOY | q = 0 | S = 0 | Stoichiometry = C11H16Br2MoN4O2 | MND = 6
Mo        3.60117847083345    3.49802512188797    1.00976162030951
Br        1.47611644819317    4.25736999856729   -0.08672356280815
Br        5.55657901684184    2.05124880024149    1.57333041681113
O         4.45111165546826    4.82812319064848    0.57216730050837
O         3.02712515148503    3.66889598330353    2.53429200954231
N         4.06280979685337    2.56183253151540   -1.16390040911532
N         3.32616950375671    1.68683903863050   -1.89230980398327
N         2.08113891661771    0.65039420586221   -0.15484476319197
N         2.55058604458292    1.32873623794904    0.92148977028503
C         5.17512580324213    2.79065217017418   -1.86322545411816
C         5.13457522251549    2.06095478417001   -3.06069182235694
H         5.88531192474180    2.05098844280484   -3.82274161060078
C         3.94779908630633    1.36759222537977   -3.05127396105767
C         6.29039254169485    3.66004729655419   -1.42491277191336
H         5.92469020467091    4.47863523436112   -0.80400282790042
H         6.80469059545422    4.06274602600606   -2.29368893980851
H         7.00308395061931    3.07935242033438   -0.83630729731246
C         3.37570778734716    0.44519374229225   -4.06247075917363
H         4.06484092606686    0.36628817290138   -4.89801709732999
H         2.42209530798969    0.81663701617188   -4.43636082962642
H         3.22690811869990   -0.55189383522676   -3.64833985920930
C         2.02626101514447    1.24448559758535   -1.46348830832990
H         1.32349091607467    2.09433118619200   -1.45955745559911
H         1.67578503018682    0.48719257485286   -2.16658790361566
C         1.63044652190606   -0.57650313580907    0.19676422719734
C         1.82565294203643   -0.68958820916009    1.55253676329409
H         1.58786972546089   -1.52694501612693    2.17438597903721
C         2.40780921096281    0.51681702789547    1.96962972069642
C         1.04458980318386   -1.54253087014182   -0.76456780796793
H         0.76367513709557   -2.44546077518229   -0.23061671457429
H         1.76224014493200   -1.81377840375148   -1.53846472837238
H         0.15376611765057   -1.13207435712705   -1.23884112850268
C         2.82496904894762    0.83503262715666    3.35408541035394
H         2.76613614419193    1.90765162329055    3.54187150350615
H         3.85757181612990    0.51814968011432    3.51159430217781
H         2.18909995211573    0.30596164568179    4.05922679274788

