35
CSD_code = TACROH | q = 0 | S = 0 | Stoichiometry = C10H16Cl2FeN4S2 | MND = 4
Fe        2.44242965975900    0.71692309229212    3.36320949646699
S         1.26765137484913    0.31561544948840    5.78819871222623
S         0.33761354833621    0.23589948748218    1.52386142359835
Cl        2.32502157273523    2.70872374024628    3.34352202100169
Cl        3.12716287260184   -1.17536464203599    3.14324940400916
N        -1.09854825448418    0.68116808146338    4.50421565875969
C         1.34874270022743   -0.70970402689285    0.58977239933981
N         2.42352024866820   -0.27709829329419   -0.11512779380830
N        -0.49046009235640   -1.40941625410269    4.67613575850548
C         2.99022271057942   -1.34882661020666   -0.75519474816104
H         3.86585267950325   -1.24702333874767   -1.36170390382374
N         1.22406354462055   -2.03837800553439    0.35735378041115
C         0.24556827005057   -2.88337881677556    0.97581148568450
H         0.71630931694271   -3.51282554010115    1.73401156579916
H        -0.23655058826345   -3.51307164931040    0.22767030008908
H        -0.49513980410207   -2.23860493234967    1.44963583386023
C        -1.70426229922371   -1.37992676697513    4.04023099730366
H        -2.20119996857105   -2.27482251796549    3.72743654227471
C        -2.07732877127497   -0.08445380837679    3.93047321515656
H        -2.94845198430847    0.35159262278292    3.48866000227913
C        -0.10655522154347   -0.13514214027795    4.94036930157047
C         2.24624975438712   -2.43894329073000   -0.46475000966257
H         2.35713365196978   -3.45784162240397   -0.77156937871896
C        -1.03045060451050    2.11364383713532    4.53019576686108
H        -0.50251192186754    2.42322111167225    5.43256251742959
H        -2.03596956487142    2.52814103178049    4.52335412501460
H        -0.47460050773125    2.47996278030941    3.66194181330335
C         0.31450263970688   -2.55917704862720    4.97415095521830
H         1.25242227524755   -2.50791057451379    4.41401078519714
H        -0.23130483462297   -3.46120542506871    4.70849728692287
H         0.55725090964927   -2.56993407282197    6.03810492697584
C         2.92817131454484    1.06319680854489   -0.05057451227193
H         2.13001012998897    1.77123138989816   -0.27965795089030
H         3.74630337342870    1.17989496249720   -0.75631124393886
H         3.28683186981187    1.28053498154395    0.97015346602047

