63
CSD_code = TAFJAM | q = 0 | S = 0 | Stoichiometry = C28H29ClPRhS3 | MND = 6
Rh       13.89580622947179    1.14623270735706   12.69440805434579
Cl       12.08747519201400   -0.26625069224476   12.21232697958648
S        15.22668063232958    0.19604081949629   10.91462014107643
S        12.99067722935086    2.65551605867589   11.04943089470481
S        15.61221613222631    2.75829741183311   13.02691221565655
P        12.85138779275464    2.05638580333413   14.47103781182744
C        14.65795249003116   -0.21590398789954   13.90786810012663
C        15.11045846934117   -1.13733499722971   14.53769988116273
C        15.66639488079177   -2.21698953246667   15.33613286389369
C        13.91023207369413   -1.68164324510000    9.35495098546848
C        14.43279048510069   -1.32114516048081   10.51156243546986
C        14.86689935816736    1.30002950739034    9.50251710087896
C        13.43263968220621    1.77414969817870    9.49754667696851
C        14.15543682608045    3.97463938491058   11.06874736145201
C        15.19203846182229    4.01927587287584   11.92091979994735
C        16.10173497940442    5.20796977445385   11.98169035143790
C        12.25925849274337    3.71355346757785   14.01795856293108
C        12.97372384586111    4.85382805556157   14.36831847976619
C        12.57565392076574    6.09041830461659   13.89260896916742
C        11.47094532684983    6.19597111769081   13.06373358597712
C        10.76505652226024    5.06012063399545   12.69936658901739
C        11.16286441713182    3.82050290003331   13.16343740330080
C        13.75309766155021    2.35681312702266   16.02648618964731
C        13.05980636209614    2.99355971469246   17.05404436509055
C        13.68441490825963    3.24363499489295   18.26027410539427
C        15.00220726111529    2.85698724594115   18.45205424394744
C        15.69021720455167    2.21916371716145   17.43447144463500
C        15.06981168043455    1.96647741376232   16.22229926074107
C        11.40260934619545    1.17891015737876   15.13397477450081
C        10.19723416739280    1.79749408052597   15.44286751979699
C         9.16631785008653    1.05645175477121   15.99455537019898
C         9.33315190419169   -0.29478930340756   16.24461416206770
C        10.53978117438115   -0.90961561122225   15.95006674933786
C        11.57353870022843   -0.17691336962552   15.39938771479382
H        15.12997721772413   -3.14541374493071   15.13722349770915
H        16.71966509704028   -2.35872624901997   15.09229868428906
H        15.57833543843535   -1.97870081882735   16.39691240692315
H        13.86700467162590   -1.04227459962953    8.48990006665468
H        13.47091414064909   -2.65725426620708    9.24238303492671
H        14.45746920963536   -1.97316991056599   11.37161435989089
H        15.55024071466088    2.14340986730870    9.63197259585187
H        15.12847166262310    0.76775201612436    8.58803649212846
H        13.24984109406796    2.46175288942988    8.67007559665689
H        12.72931138945586    0.94113273401612    9.45490523007803
H        13.90150652645032    4.80084855108646   10.42323149113228
H        15.87945661324572    5.91362052440740   11.18443802707415
H        15.97804567939664    5.70711212173233   12.94180273888638
H        17.13910898291486    4.88728026581874   11.90663800961126
H        13.84207601887909    4.76583418853379   15.00647561338256
H        13.13285061755430    6.97508652820432   14.16526651599491
H        11.16454633734252    7.16351243816464   12.69372228239428
H         9.91072723438751    5.14020105417135   12.04319717494903
H        10.63711745924697    2.92356761959201   12.86192989922657
H        12.03159745489709    3.29331673812728   16.90202210451082
H        13.14415634090472    3.74004043121209   19.05340570289972
H        15.48893528660206    3.05350835696954   19.39623636957762
H        16.71639819825816    1.91674971694544   17.58177197517569
H        15.60163530259067    1.46462104547207   15.42744215437745
H        10.05534146660160    2.85213946938850   15.25103995490366
H         8.22744345298712    1.53852531581679   16.22703675173228
H         8.52157287212878   -0.86859690764184   16.66783535769758
H        10.67167599162869   -1.96363837255191   16.14465741948911
H        12.51776586771828   -0.64367482782042   15.15113734713466

