41
CSD_code = TAJMEY | q = -1 | S = 0 | Stoichiometry = C19H9ClN2O7ReS2(1-) | MND = 6
Re       -5.69541819247674   10.54154680946879   17.76109761671153
Cl       -6.15816056420681    8.27486478178629   18.31862885890119
S        -1.04816318529520   12.49973298808777   16.10175630842822
S        -1.26447843489423   13.22994476460288   18.94927866603235
O         0.43618852232508   14.15726213848695   14.40933697590919
O         1.05351758008183   15.79674893619246   15.77635583858467
H         0.98715388332046   16.09446766405939   16.79874548949659
O         0.82913586660975   16.34084553691174   18.21015954976389
O        -0.13178515404610   15.31999980326128   19.96550179893849
O        -7.64407557022291   10.37729088349826   15.36743769177584
O        -4.70490401896990   13.39353855585583   17.08340057424002
O        -7.97974154430766   11.49109839444953   19.61460721542915
N        -4.25831453742817   10.37049370192950   19.41351718422604
N        -4.03884358161790    9.64381242147742   16.63332782073802
C        -2.47273419101708   10.99794474836398   17.89706210422779
C        -1.72013951648355    9.47849951150413   16.09483857483090
H        -0.71079118078356    9.79931759240706   16.29493554447417
C         0.16683377842931   15.45242342540927   18.78424136128039
C        -0.37711200884086   14.30465682620568   17.91768969322091
C        -7.12998177998391   11.17429137835953   18.90763256297685
C        -5.06321601028737   12.33256858393708   17.33921645951249
C        -2.96083881821365   10.65732235731464   19.24061978535490
C         0.44877024912041   14.67744606042066   15.50602514064776
C        -0.26648571783267   13.98802391717542   16.62038728543936
C        -2.77136279143213   10.03116371626844   16.83208657105202
C        -2.05100486029199   10.56916890132154   20.29792758652352
H        -1.01113035266149   10.78788248745935   20.11808763161181
C        -6.92059356673495   10.47880476500010   16.25564974724084
C        -4.67034160319385    9.98139701119936   20.61929122544512
H        -5.72038636142101    9.73517483508674   20.71282739059031
C        -4.28295938514696    8.70162975748984   15.72361027885020
H        -5.31596166527230    8.39828718563465   15.61024336851754
C        -1.65846300395231   12.07380115281768   17.68608857104688
C        -2.48847427086060   10.18492258927262   21.54680396420013
H        -1.79676119938397   10.11300522954774   22.37272647366486
C        -3.83223247959016    9.87648488423462   21.71036642309443
H        -4.22474384509554    9.56074505649341   22.66378261782274
C        -1.98278733827907    8.51804914221111   15.14242527403426
H        -1.18030240208948    8.08141919597955   14.56681714851569
C        -3.29808672098891    8.11401890446938   14.95639759984586
H        -3.55722402657697    7.35860340435145   14.23186802679921

