33
CSD_code = TALRED | q = 0 | S = 0 | Stoichiometry = C13H17ClSiTi | MND = 12
Ti        1.38501808391425    2.17102421494820    3.49582915987598
Si        2.91315086362803    2.20919392224474    0.60275721054594
Cl       -0.37920967274845    2.13667780228774    4.82349313965891
C         2.16110816230959    0.86757916437743    1.70100413054602
C         0.76265250118463    0.64865481961675    1.80459317633019
C         0.50053420651088   -0.06187579843344    2.98755021417971
C         1.71747500889847   -0.23160253968822    3.66869640744564
C         2.73866466677831    0.36253476357393    2.88981666543743
C         2.64726631050334    2.18177884086450    5.17579346567912
C         2.27169658041710    2.20707739222007   -1.18957209545123
C         4.81557178257881    2.23833667685536    0.68147889120212
H         0.03807680619344    0.84484914801576    1.02323226379247
H        -0.45715524531756   -0.46323706655738    3.29284692203326
H         1.85874600103118   -0.81407632105505    4.57017454273074
H         3.80122681915169    0.28371703388313    3.08431694558713
H         2.43742963911545    3.05540755973085    5.80259633320731
H         2.46099743452585    1.29752279270789    5.79522692409969
H         1.18779994543288    2.21348744898240   -1.23553916319528
H         2.63077280963106    3.07936103947406   -1.72536082744547
H         5.17645426537114    2.23454068570258    1.70545898994849
H         5.23420534692292    1.37424172531904    0.17712449749000
C         2.12010013222893    3.51624617125259    1.71381559974871
C         0.71549778675430    3.69053649006783    1.81847861909614
C         0.43063775927599    4.37942497576040    3.00880004606520
C         1.64136126726926    4.57944919732593    3.69303117791061
C         2.68103608251468    4.02603317430581    2.90856112287264
H         3.71459318674246    2.19710443140176    4.92453077268428
H         2.62039345576316    1.32724083843932   -1.71984336029111
H         5.20671023813833    3.12439055630719    0.19337639438765
H        -0.00224874767929    3.47999429850442    1.03457449884681
H        -0.53920152443474    4.74749459275988    3.31764524220572
H         1.76360483508478    5.15671282405204    4.60063442370308
H         3.74053321228164    4.13577914472892    3.10477766905118

