50
CSD_code = TELJID | q = 0 | S = 0 | Stoichiometry = C22H22ClMnN2O2 | MND = 5
Mn        2.26000633105790    2.72210901822368   -0.20347948325309
Cl        1.19261090633876    1.33373034032056    0.99848740916986
O         4.05776834672215    2.85045557826230   -0.14306912258274
O         1.97918313405816    4.08147469983856    0.96175414366345
N         2.59297250898939    1.29809876198802   -1.58571793305981
N         0.94273181227526    3.24339039394005   -1.36683657845199
C         5.06763483154143    2.13568596398514   -0.53229431083133
C         4.92880750613693    1.04252876911565   -1.35480127098834
C         3.67052929118060    0.64080588962804   -1.88870376988394
C         3.66810945556396   -0.53201853881630   -2.83295612679286
C         1.32165095957915    0.99306461943425   -2.21221892929813
C         0.61245601580040    2.32886718316805   -2.45736371377856
C         0.29266487421073    4.41751169832032   -1.34080067908261
C        -0.66251209058629    4.78496310872175   -2.44713413226734
C         0.45644065401075    5.33575066307406   -0.30948987708117
C         1.29375649618826    5.13961276314780    0.80454302961592
C         6.39531857019125    2.58681858767012   -0.06001450754054
C         7.47757367741958    1.71929512960545    0.07587122907441
C         8.69490868729463    2.19146667795998    0.52931164319765
C         8.85116511428492    3.52934665306661    0.85488453083714
C         7.77733653127612    4.39621498777437    0.73631015447083
C         6.55789739955371    3.92813751993351    0.28726364199937
C         1.41924108765228    6.18193557421236    1.84730832165019
C         2.58053712363560    6.19931098253514    2.62165877954083
C         2.75771270224060    7.14886254516332    3.60799424041753
C         1.77371925554309    8.09518406409568    3.84393473929016
C         0.60986359765852    8.07709041308402    3.09261964630273
C         0.42957289006179    7.12992507346290    2.10200915532790
H         5.80325367689642    0.49332076835022   -1.65962318484700
H         2.91655738665125   -1.25785643434482   -2.52880457790570
H         3.44614767552627   -0.20879627540603   -3.84990877911562
H         4.64063448348862   -1.01459640587599   -2.83475251129055
H         0.73885170645121    0.38917649570981   -1.50716724992231
H         1.42902853531935    0.45285817972308   -3.15627341228620
H        -0.46935131251588    2.16851991099494   -2.51313208991392
H         0.95556548467862    2.75674524230068   -3.40974078226076
H        -1.02197167568065    5.80026002226915   -2.31017928337881
H        -0.17879410345263    4.71675353709266   -3.42066626082168
H        -1.52224271295117    4.11508559205230   -2.44913442565381
H        -0.09745924770221    6.25809745480822   -0.37130710131054
H         7.36238723713717    0.66979260327565   -0.14678817166769
H         9.52677014988348    1.51060639582759    0.63561091423977
H         9.80523286237265    3.89242005041623    1.20737510717081
H         7.89112505764076    5.43829091431636    0.99697750947500
H         5.71387034008052    4.59637995296681    0.19417767946057
H         3.33956989575636    5.45396691851392    2.43366284194132
H         3.66388106187694    7.15191959733721    4.19628722449310
H         1.90908542944850    8.83926614033461    4.61509179476459
H        -0.16614526468648    8.80405325944725    3.28464836210372
H        -0.49555433609900    7.11501695897678    1.54647616705947

