40
CSD_code = TEXSUM | q = 0 | S = 0 | Stoichiometry = C17H14I2N4O2Ru | MND = 6
C         5.41553050290982    1.60868088588630    4.02452263166632
C         3.59351020437250    3.07563373923819    2.77595305031604
C         7.13816005780427   -0.49995351693148    1.76493240572143
H         7.57798825181147   -0.56180885255193    2.74184118295959
C         7.42662212893707   -1.23023884346307    0.63923496004992
H         8.14219240665564   -2.01087144839351    0.48381707964812
C         6.48535134857162   -1.30253878563185   -1.69402371277797
H         6.17724306770350   -0.47609294712687   -2.33864054637544
H         7.46395611018468   -1.66739482574961   -2.01465388945926
C         5.44973984399794   -2.42217391479991   -1.74356332135394
H         5.74949935460553   -3.25211881589872   -1.10783778556193
H         5.34727116507400   -2.78184132133738   -2.76304348616733
H         4.48386370450128   -2.05703263483944   -1.40293664779654
C         5.84611552102235    0.18887097250480    0.18419995805488
C         3.33913437280282    2.51167987132775   -0.29925991932083
C         3.17089118256851    3.85399580604114   -0.02357746096662
H         3.87934308101603    4.38379225888010    0.60025150780095
C         2.11772986267181    4.57499516302082   -0.60816452579076
C         1.92714870162764    5.94936599334815   -0.34489866423445
H         2.62016006912705    6.45261440276363    0.31297848013977
C         0.87996436514511    6.62307202252897   -0.90765084700249
H         0.73485183772492    7.67283301652052   -0.70176915741488
C        -0.01728132380717    5.95797497308385   -1.75871456250775
H        -0.83866224601766    6.50746060211828   -2.19391584967737
C         0.14545607211439    4.62804139486035   -2.03792686161250
H        -0.54276174247985    4.11485565954192   -2.69369950602206
C         1.21399255460739    3.90325876453391   -1.47688884150437
C         1.42211172383175    2.53256485775941   -1.75211719011533
H         0.73452105946992    2.02542926125123   -2.41272381195622
C         2.46262866995299    1.85350579340786   -1.19652757297577
H         2.61945662914637    0.80244623622517   -1.38643791130758
I         3.02302212021143   -0.17731938981962    2.56023461639345
I         6.78263749741916    3.68733059014486    1.80389916316319
N         6.15580776014699    0.37903010086121    1.47468013110113
N         6.61283839852349   -0.78582324498564   -0.35480107317536
N         4.90131340014051    0.89937620227569   -0.45198211531904
N         4.37167962685537    1.79824122118206    0.30062105202392
O         5.77946761725043    1.42958220479524    5.08718234195902
O         2.80640768244059    3.80265177660927    3.16656443243540
Ru        4.85899735935922    1.81982477082068    2.23794226696287

