47
CSD_code = TIBGOB | q = 0 | S = 0 | Stoichiometry = C24H16CdCl2N4 | MND = 6
Cd       11.23100343805551    5.27853628106414    9.21965323409997
Cl        9.32883588718247    3.92756586887046    9.73179155767170
Cl       13.19425993885291    3.95569188963395    8.88090273231288
N         9.88146027047962    7.06558401505083   10.14217904429683
N        11.65689895303368    5.55642394299930   11.53999491131254
N        12.50175474917897    6.99346264642136    8.08587529892236
N        10.82700643535373    5.22769474245607    6.87786629396046
C         9.00468323147469    7.74028811693382    9.43703710128310
H         9.30549012337373    7.99778202199369    8.42874607641079
C         7.75186575785323    8.11991052971950    9.93008951593947
H         7.06645092344797    8.66686420257391    9.30146245037969
C         7.41654706896499    7.77546661946813   11.21651183173505
H         6.45762957590433    8.04391521749920   11.63695789629649
C         8.33289294379979    7.04837557786442   11.99350539773379
C         8.05401351295457    6.63627958266109   13.32790467049184
H         7.10308156800848    6.91506553393930   13.75848431501624
C         8.94657203498866    5.90038515013308   14.03086456621100
H         8.72863142842567    5.57701194032337   15.03849594831993
C        10.18953413727812    5.51011431396392   13.45516627144054
C        11.12225048099199    4.70583768974596   14.13159054937406
H        10.90552813284478    4.37136320662110   15.13645020086608
C        12.28531037420473    4.34627226013192   13.49637432856277
H        13.01640218364939    3.71831457756000   13.98102436397529
C        12.50872030331138    4.79553228615182   12.18940844794706
H        13.40555707450820    4.51813128212898   11.64780180590751
C        10.51011100403026    5.91359592753008   12.13969438377161
C         9.56642635580426    6.70477810893246   11.39516705535530
C        13.33016485466255    7.80012720903317    8.70565674671273
H        12.99609375351509    8.17570742611508    9.66510861567793
C        14.57383343115757    8.17175482451520    8.18427537984511
H        15.21825443768144    8.83289256246949    8.74260538990487
C        14.95340011922470    7.67223584651838    6.96265285389168
H        15.90765282369910    7.92811338978672    6.52422115436560
C        14.09006844628053    6.80091594656919    6.27883505503930
C        14.41925342118177    6.22222518040567    5.01989875922934
H        15.36626027909678    6.48489312569485    4.57095225418946
C        13.57895325018529    5.35242614133802    4.41187370974832
H        13.83615369706279    4.90254072824231    3.46379672256533
C        12.34131888184518    4.98635061239644    5.01433645946047
C        11.46253541670719    4.05212033381685    4.44042826281806
H        11.71902723851713    3.59157406424719    3.49663491415277
C        10.30131589259738    3.72952694289639    5.09837333757620
H         9.61104381523278    3.00634245293535    4.69311488463362
C        10.02611684165413    4.34477041092366    6.32549164261002
H         9.12889256683422    4.10313966198564    6.88351197718262
C        11.97106542831934    5.55233237972195    6.25464415107213
C        12.86057751661342    6.48216722799728    6.89868747970570

