55
CSD_code = TICNUP | q = 0 | S = 0 | Stoichiometry = C20H30ClN2PZn | MND = 4
Zn       19.63424921450404    2.32228183296034    6.48390065191534
P        17.94477485197800    4.26255671199735    7.19378135813120
Cl       20.03298834510154    0.24842990584501    5.94893165435530
N        21.12810516968441    2.92435477081164    7.84945149281010
N        18.05964280726766    2.79808353934069    7.79267388346010
C        21.82374568706382    2.22296799001073    8.71103340320921
H        21.58876186652810    1.16931842748538    8.76916324300277
C        22.83530116830743    2.77968843082879    9.50391065623910
H        23.35324404092404    2.16416632558051   10.22223383864521
C        23.17972670294217    4.08941867922619    9.30246040122819
H        23.99473245651350    4.54565605348600    9.84641120741835
C        22.48025769887524    4.85569224497886    8.34824664538431
C        22.83000418374617    6.17983906223284    8.02489259447204
H        23.64565661912086    6.65196912700785    8.55144610714007
C        22.14981646176775    6.83529727153646    7.03260777974963
H        22.44002580069409    7.83541075675043    6.74532915688259
C        21.05221321037752    6.24108364591184    6.40595638815294
H        20.52732673206780    6.79584749771715    5.63957528489741
C        20.59671827330032    4.98074826617513    6.75458360941471
C        21.38739908875633    4.23600987739463    7.67888867682196
C        19.40442103890241    4.38305491498848    6.13888629410354
H        19.12183265823136    4.96622507452197    5.25717403787554
C        17.82527832647323    5.66437667214920    8.43663390290370
H        16.87378447167208    5.50853621195261    8.95733451803955
C        18.95880095306545    5.54398674860918    9.45069153079207
H        19.86591849471957    6.00978405462053    9.07276737673435
H        19.17517704633123    4.49559395153484    9.65691016174758
H        18.69081912163264    6.03478194111308   10.38566928959133
C        17.80952421025989    7.04091197260504    7.78388777318457
H        17.77201813193461    7.80848975818310    8.55645899136496
H        16.94331059173560    7.16932009611968    7.13941558880027
H        18.71065182239291    7.19580097423746    7.19596614319158
C        16.54814257582457    4.59382562506607    5.97753945668382
H        16.76631648411255    5.54628796856715    5.48147768357338
C        16.56364910733457    3.47576078173781    4.94149041263196
H        16.46874628969561    2.50821079057836    5.43229645931370
H        17.49030039606842    3.47595385628952    4.37054824420109
H        15.73396754590955    3.59274949871186    4.24510800728934
C        15.18205380327282    4.68409471657088    6.64667605034866
H        14.41573649095282    4.88770161859347    5.89896830733405
H        15.14675147455040    5.47866509252086    7.38982094022950
H        14.93348004254913    3.74162256974060    7.13065359235280
C        17.30458084121354    2.02210490871424    8.76364002902329
C        16.47458210575907    2.86382577120317    9.73426313641769
H        17.11558983969921    3.51180852637485   10.32697882647877
H        15.93007045465544    2.20850223820874   10.41149998022812
H        15.75382949951204    3.47305415387302    9.19357694211005
C        16.38391875058674    1.04617508454440    8.01850756272374
H        15.60113631680212    1.58490073305742    7.48794587594941
H        15.91666723792367    0.35551568378069    8.71646787909263
H        16.96560755644968    0.47554597117812    7.29711493638993
C        18.33228774355713    1.20733656749202    9.56064824008181
H        18.91649647885253    0.59326341655444    8.87818785700611
H        17.83370884292875    0.56024868833616   10.27797695212244
H        19.00715287491665    1.87226295039325   10.09663898675542

