22
CSD_code = TIPWUK | q = 0 | S = 0 | Stoichiometry = C7H8Cl2N4Pt | MND = 4
Pt        1.09303383396711    0.42551916747830    2.05242055913542
Cl        0.38101260297034    1.08586383983409    4.05131068418729
Cl        1.29621232105989   -1.67586916678930    2.74497270665255
N         1.72165632734601    0.01443176427829    0.16720814003394
N         2.17025348411112    0.74334313288772   -1.87197944851743
N         0.97155006434833    2.28191017051926    1.24075279752463
N         1.22735196422865    3.59238164344634   -0.51120288008128
H         1.43437064120649    3.91768086346895   -1.44013030420257
C         2.13866342580643   -1.03843432365915   -0.57273729758988
H         2.20603155469844   -2.02038982420538   -0.14940690880606
C         2.41894408503637   -0.60052076658314   -1.83617323081103
H         2.77011994636019   -1.12931474592574   -2.69784161569075
C         1.74384205407298    1.09016906030155   -0.62837244397735
C         1.33665641938765    2.32066438417515   -0.04362369530029
C         0.62450645727398    3.54063586164391    1.60191958137332
H         0.29405757304488    3.75605287538709    2.59811614795409
C         0.77789569205235    4.36565218136118    0.52580922624484
H         0.60780475460658    5.41594728418022    0.41470483152733
C         2.32631701819958    1.61263773339513   -3.00350502880627
H         1.36782530517749    2.05707496475581   -3.28232557335028
H         2.69905461979232    1.03406596348946   -3.84630259201433
H         3.04303985525029    2.40679793655828   -2.78181365548422

