34
CSD_code = TITXUR | q = 0 | S = 0 | Stoichiometry = C11H14Cl2N4OSZn | MND = 4
Zn       10.58492398337996    8.04842571206149    8.65098818360693
Cl       10.50621292391594   10.24415729777565    8.52284556779819
N        11.79302493947021    7.59444441839477   10.39240819799308
N        11.88804697815573    6.64323461889504    7.89399936986975
N        12.33369657671844    6.43465154375307   10.23595842597224
C        11.32805762115957    7.84200767188810   11.63797231606792
C        13.75528877261973    3.99769502437605    9.44262304931914
H        13.59350632170665    4.32541779699218   10.46741294507930
H        14.82403031776371    3.99263014216026    9.22106955258917
H        13.36090218120834    2.98911455759080    9.31514652467096
C        12.42643062568380    6.03549957980522    8.94615432316185
N        13.07020814594866    4.90752295560545    8.56940698209131
C        12.92749638417590    4.80796345971019    7.22014496610631
H        13.34318048539753    3.99390004182322    6.66257461044238
C        12.19019793085050    5.89137214842510    6.81754770781693
H        11.85850155960417    6.17083912096317    5.83859375596237
C        10.85995602349900    6.75631515387757   12.41733438422000
C        11.09849270731030    9.15823857113599   12.06766512704796
H        11.44897973258804    9.96602077916681   11.44456643143405
C        10.44128240594144    9.38999616625721   13.24850372042547
H        10.26962821663775   10.40151685932116   13.58219137016096
C        10.17570865802213    7.02082979878498   13.59891474903301
H         9.80949833200764    6.20371055476556   14.20125173300217
C         9.98087135870318    8.31872641432312   14.01615362464045
H         9.46121305527373    8.50638053330480   14.94348355577857
S        11.07677417255496    5.14264909283262   11.79219199614609
C         9.43288539643009    4.41827676798786   12.09907751052877
H         9.22703309024781    4.35997667599036   13.16194620472113
H         9.45806600530512    3.42228028708521   11.66975670657564
H         8.70386572154450    5.03439285444288   11.57939686446093
Cl        8.94457344973896    6.77481766597071    9.59342397835820
O         9.36868961010045    8.03883133898800    6.64910751841881
H         9.27454745758338    8.99187212351924    6.52624091538786
H         8.50232885879025    7.70339227199837    6.90554713112995

