31
CSD_code = TIWRIB | q = 0 | S = 0 | Stoichiometry = C13H11Br2N3OPd | MND = 4
Pd        2.21585352153461    3.46451416479642    9.57350860652069
Br        1.37361870969612    4.80650635804616    7.84377019681150
Br        2.89881785070424    5.38624435974235   10.76581008422531
O         4.20462868226959    0.61162766066146   13.07901749299654
N         1.71051949580493    1.67129909193291    8.68804767059992
N         2.92419075889132    2.16872743932950   10.99700164492498
N         3.52967541382068    2.57453130770623   12.12763193444208
C         1.09190838089837    1.44140431203509    7.53320111768959
C         0.83713006978127    0.16348975092878    7.06705634696556
C         1.24026307664080   -0.92790958162623    7.82805260679632
C         1.88199418517634   -0.69711555913351    9.02770803517525
C         2.10755222473694    0.61943314696277    9.44120381796238
C         2.76682869095781    0.92190615478110   10.68222692416033
C         4.16980509613393    1.82502925962101   13.09455173126687
C         4.78783373744795    2.64747744470635   14.16207073227913
C         5.17396563103319    3.97754168078123   13.99477125439704
C         5.75236770020284    4.66030635920133   15.04956718050759
C         5.94996526787596    4.03454775180163   16.27005126128774
C         5.58197167385878    2.70891865114793   16.43658343940904
C         5.01031697720890    2.01754355705921   15.38685464568037
H         3.51971878451375    3.59522232595214   12.22482335200904
H         0.79014268091559    2.30972896434134    6.95971393239194
H         0.33255631520173    0.03045887768208    6.12436767742096
H         1.05576459891051   -1.93528234023377    7.48867941246092
H         2.21457562371315   -1.50932445387921    9.65430144256521
H         3.11576792347884    0.11832272372801   11.31866946254124
H         5.06072687169543    4.49078607016610   13.05116995650456
H         6.05017808833868    5.68860168711261   14.91399064417200
H         6.39689588047037    4.57842687678616   17.08856991767657
H         5.74223842876575    2.21513867857805   17.38302686138435
H         4.72072765931963    0.98299727928344   15.49450061677372

