34
CSD_code = TOCHAU | q = 0 | S = 0 | Stoichiometry = C16H13ClN2OPd | MND = 4
Pd        1.62465769894476    5.21048574976783    5.31824038609707
C         3.28950839908684    9.25763373292321    4.84809882017449
C         1.91180730768546    7.73145057703262    6.64366488188547
C         2.28365174595310    9.02372297223872    6.99959611641081
N         2.19779215030197    7.23241921044984    5.43459705968762
C         0.03304228386825    7.28202291687303    8.20833439729287
N         2.87034713953451    5.15654742732451    7.30990068794400
C         1.00473215585749    4.73106864957030    8.81641677795356
C         2.73019702678766    3.08974787450752    8.51454089016149
C         1.55561336859601    3.46503692953302    9.10796844130576
C         3.35446623174986    3.97605184135091    7.62145145070132
C        -0.18695247998539    5.20556211059381    9.40218435193898
C         2.87402760795703    7.96747522951149    4.56224889252763
C         1.18292372745879    6.85280475042278    7.58594749305470
C         2.98198676353181    9.79766562548925    6.08774733273128
C        -0.65791408617125    6.45396552213472    9.10450160198964
Cl        0.92350661554065    3.07856608457551    5.49550081636305
C         1.27204597180905    5.21620853695546    3.41300240768397
O         2.19225211316799    5.52932503617053    2.70778085726780
C        -0.10551064838634    4.84562925822907    2.95010625967171
C         1.69703486418811    5.54962681078981    7.88111667249666
H         3.17494423279130    2.12688520978078    8.70889264646002
H         4.29243805943626    3.70947213348300    7.14691407608934
H         3.08160762428002    7.50233602657913    3.60576119878609
H         2.03870362719723    9.40090807234306    7.98047446431491
H         3.28502710358207   10.80205692660957    6.34284067587190
H         3.83935778138211    9.82464796816907    4.11436767681575
H        -0.35819057594708    8.26387256816026    7.98238328740658
H        -1.57049794855001    6.81496073381431    9.55416801136683
H         1.03765841003612    2.81162629296021    9.79479997399546
H        -0.20538669258664    3.76361152451744    3.06307391030561
H        -0.71675931566625    4.56212944826473   10.08894790190156
H        -0.86079983530193    5.31371664216769    3.58718079785405
H        -0.24831842813101    5.12475960670740    1.90574878349249

