42
CSD_code = TOGQEO | q = 0 | S = 0 | Stoichiometry = C17H18Cl2N2O2Pd | MND = 4
Pd       13.21556199820637    7.96027278343844    3.49751113032397
Cl       11.89220919061112    7.21481195713432    1.88265468601944
Cl       14.08553676337683    9.38342847811200    1.99813379984262
O        13.56991333381771   10.82109822956265    4.49182809922636
O        15.62286655127114   11.60128385376790    3.96459443548888
N        12.41142158397175    6.73824166218725    4.88859191052108
N        14.28797525624465    8.51061823514248    5.04950115102518
C        11.47991118128127    5.80395836416488    4.73193665470582
C        11.01786246293111    5.03615063534598    5.78678876505914
C        11.54194349552110    5.24390201403203    7.05913460477434
C        12.51167948762488    6.21103355813239    7.22737841491589
C        12.93363950398680    6.94848932721884    6.11794313448323
C        13.96760423172103    7.94172210444546    6.15695845390357
C        15.39132001664700    9.41229323495013    4.97564775974919
C        14.89654178526913   10.74229301154567    4.37406379220373
C        12.93846745499972   11.96028007646916    3.88818784969086
C        12.99494754800521   13.17802442074005    4.79629359160974
C        16.52668830510144    8.77678424373790    4.11451062846865
C        16.37645235023840    7.27828495489071    4.17534047824288
C        15.72064921765879    6.59505011123575    3.14553970294827
C        15.38869918376457    5.25381536194120    3.29747258869996
C        15.71929243631137    4.58164917980457    4.46428164970366
C        16.41606727800011    5.23942096164926    5.46342140819384
C        16.73379676545169    6.58019632499313    5.32239417891100
H        14.02792916660554   13.47766941206679    4.95360879322615
H        12.45895028112903   13.99958088474842    4.33036198877860
H        12.53703680908733   12.95741576075861    5.75808919192041
H        11.90950131990168   11.64123406826349    3.70690413801698
H        13.43788594621970   12.16236027206557    2.93601604197674
H        17.48821308801138    9.10409486732261    4.50866936055825
H        16.42343631885881    9.12861953671929    3.08768710082198
H        17.26078413327294    7.09200964411868    6.11598858848947
H        16.70251769167133    4.71128824333924    6.36133411169689
H        15.45078986250145    3.54273669150613    4.58677295977523
H        14.88324143782962    4.73510388352749    2.49492173003446
H        15.53958995346028    7.08872407178200    2.19265059752622
H        12.94970013145365    6.40708244557592    8.19340868423953
H        11.19681669189225    4.65966951198599    7.89823488367557
H        10.25955456606478    4.28978725987847    5.61513332044153
H        11.09886253400897    5.68006601923956    3.72432637097278
H        14.48022333311989    8.16261501039255    7.09222064308212
H        15.77571935289418    9.63763933207311    5.98446262605869

