55
CSD_code = TOMFOQ | q = 0 | S = 0 | Stoichiometry = C24H26Cl2N2Zr | MND = 12
Zr        2.34177970130759    9.71003794671986    2.56532257719731
Cl        3.66108463930142    7.94971097259407    1.75412148702490
Cl        0.62193020317286    8.16551962508476    2.95410668442403
N         5.25845011084988   11.25949043986587    3.19513457570068
N        -0.11172362069534   12.00384092895693    2.42901896295362
C         2.61525638997438   12.85972761927883    3.73695747141254
C         2.84914817941354   13.02581020022664    2.22368754344683
C         2.93393326176676   11.44440338279851    4.14367353041766
C         4.14588598023976   10.72699105471447    3.89361284444339
C         4.02510085050891    9.41421739204127    4.41372613556265
C         2.74529168471768    9.29820318112063    5.02633342784256
C         2.05551460019475   10.56203286185180    4.85272078111754
C         0.76384425917424   10.72125191288790    5.39467919316167
C         0.19322677173182    9.67193488484701    6.07216511263582
C         0.86939976296523    8.45211851468673    6.24762985703957
C         2.12900768588235    8.25416614698407    5.73961908256357
C         5.98311028702615   12.29048937549317    3.92216244712043
C         6.16667343546828   10.26326315797509    2.65177289468166
C         2.21941318757518   11.87233738914686    1.48672027630218
C         0.86640288545613   11.41898624104045    1.58662561742412
C         0.69312169005692   10.28554818544837    0.75347666465719
C         1.92830768374538   10.02975904339338    0.09341315125703
C         2.88835616230570   11.01393419287393    0.55466296478217
C         4.19679325777213   10.99748024468347    0.03009498458721
C         4.52715351634837   10.04537638949148   -0.90268313864790
C         3.59107185173426    9.09885764940219   -1.35409285821327
C         2.30529565095552    9.08075029539590   -0.87399697710701
C        -1.24703233383145   11.14644062426555    2.72617264987962
C        -0.54753580598401   13.32803082035542    2.01295113098831
H         3.21843410390580   13.58871052766191    4.28895770208721
H         1.56609889676873   13.06000629522364    3.96580135456012
H         2.45190742973823   13.99023159407335    1.88897537801969
H         3.92252414500356   13.02399140389959    2.02100681964764
H         4.79936840871812    8.65922663568162    4.44357522238305
H         0.24421408313909   11.66561793137319    5.30217739087575
H        -0.79596628792572    9.78114450881926    6.49146974672589
H         0.38127802933947    7.66071670865861    6.79565063175466
H         2.64941602965485    7.31621900715368    5.88294984908896
H         6.65357254264030   12.80499565014972    3.23309586741356
H         6.58175052049844   11.87103724067943    4.74212260441170
H         5.28797519606938   13.01204971750751    4.34126881571094
H         6.76773669218648    9.77097127219256    3.42842946783056
H         6.84951685248363   10.76334270373330    1.96415055298688
H         5.59957677456726    9.51032506501702    2.09994689568716
H        -0.23470822253038    9.76411439139729    0.55953511123725
H         4.91889469012544   11.74213531829496    0.33742681257424
H         5.52649133004506   10.02162375455034   -1.31138789833504
H         3.89763219630404    8.37613887881409   -2.09483813586011
H         1.58516527933761    8.35544943094101   -1.22949846546596
H        -1.91883607157240   11.02151047788287    1.86600234568142
H        -1.81724868998146   11.60403082783206    3.53523763467684
H        -0.89240610480476   10.16719747483593    3.05509467365456
H         0.31189617972625   13.94752731147893    1.77382017355742
H        -1.10034092379720   13.79188028429531    2.83043848378413
H        -1.20040500878014   13.28729491422791    1.13040189065371

