53
CSD_code = TURSUU | q = 0 | S = 0 | Stoichiometry = C26H22Cl2P2Pd | MND = 4
Pd        1.54224110089323    2.92848701738040    6.50658265990139
Cl        0.41964829454328    2.13913233460693    4.70074952348710
Cl       -0.29339242982428    3.00151952538172    7.83721726531611
P         3.41436923477792    2.89888159514230    5.29645809883135
P         2.75518011307537    3.68623352260637    8.21739539813674
C         4.76606935566986    3.45478670113067    6.38709270898075
H         5.77701682385141    3.45655755586130    5.99196104318619
C         4.48267679823854    3.79321000880588    7.64283568898153
H         5.24348583072229    4.09420492831510    8.35606518091137
C         3.95786737138167    1.21696928157488    4.88508780294078
C         3.25164405540633    0.16143008812369    5.45247068529907
H         2.37774916469261    0.38001221695761    6.07166391529414
C         3.63447222406117   -1.14158947416173    5.19215936323278
H         3.08226018122646   -1.96399907252216    5.62134230469803
C         4.72270905257576   -1.38917422458273    4.37027831326852
H         5.01962475092907   -2.40634421834732    4.16199918462991
C         5.42754919578485   -0.33733877092281    3.80553275453707
H         6.27071536718405   -0.53683657255227    3.16053927996257
C         5.05003409994086    0.96829081068495    4.06074277531865
H         5.58742031767588    1.79349487950552    3.61315934112670
C         3.64650116398247    3.83601221653137    3.76914364667109
C         3.06902637993231    3.33364538073774    2.60467365893441
H         2.54071045145899    2.39029775009361    2.64226671317428
C         3.15751694791251    4.05701937382685    1.43071107726409
H         2.71070282263117    3.67157608186662    0.52655213852380
C         3.81020189073170    5.28052224487361    1.41544659822055
H         3.87657313182087    5.84478421601850    0.49704992712709
C         4.36574907915062    5.78984764332839    2.57814335420874
H         4.86095693384345    6.74990448685868    2.56588311760668
C         4.27944647637076    5.07494859349433    3.75920166974299
H         4.69595931382945    5.47514597776075    4.67447890892786
C         2.90003859722087    2.46425761135618    9.55174709867866
C         3.54358558144208    2.74643915037654   10.75197460822822
H         3.95020725813096    3.73335064657384   10.92727413877039
C         3.64078895870290    1.76412807333055   11.72041989098535
H         4.13362671912964    1.97962223941193   12.65712162851341
C         3.10197009277897    0.50699119309459   11.49377827618722
H         3.17637743062116   -0.25353079426219   12.25681619345721
C         2.46069672387703    0.22537523079072   10.29775884539541
H         2.03315797671923   -0.75162641443577   10.12989696409820
C         2.36060630825049    1.20241016337966    9.32427787508773
H         1.83127774125554    1.01230180753334    8.38654481921452
C         2.46233416066707    5.25162469806242    9.07114802532327
C         3.17350713954458    6.40405046171139    8.75209987699918
H         3.96014656308060    6.36430930810732    8.00983723741105
C         2.86468308443968    7.59556938587565    9.38323952503502
H         3.41876148715503    8.49103662850422    9.14193290359396
C         1.84140152061873    7.64276245117380   10.31628473179105
H         1.60199878000597    8.57637786466008   10.80341696881291
C         1.11540345022983    6.49965140560845   10.61529573054244
H         0.30713538005987    6.54431932162315   11.32973077471775
C         1.41853074644296    5.30383781095294    9.99283722501606
H         0.84637880515751    4.40780965820365   10.19328256371377

