68
CSD_code = TUTNUT | q = 0 | S = 0 | Stoichiometry = C26H33Cl2FeN3OP2 | MND = 6
Fe        7.29594356745002   -0.07380252042957    0.26541040091143
Cl        8.50593253624834    0.97795328137907   -1.22566668080575
Cl        5.84432499426380   -0.89963968481013    1.68027436016324
P         7.90297834808694    1.32134934277873    1.77670792735947
P         6.39171107142090   -1.18899097762888   -1.32728109969453
O         9.32642382324392   -2.03552928411719    0.86429374767868
N         5.89332352230502    1.28568891406053   -0.15108599126438
N         6.74400919201841    2.58017658116482    1.57010391081699
N         5.14637471226115   -0.11315309998176   -1.83351160341265
C         5.81518037733279    2.41316722125600    0.56957182084022
C         4.86376746408331    3.39410645412487    0.28916774914182
C         3.97535111646075    3.17650983928098   -0.74531077570246
C         4.04643527581984    2.00981584687906   -1.48031353268643
C         5.03402277621665    1.07812420352887   -1.15919694467572
C         6.50959019153820    3.54221801869806    2.59023910448210
C         5.40852159219917    3.40047848728393    3.42968669369058
C         5.18726700623951    4.31746289929905    4.43978714961481
C         6.06164881356264    5.37709645673222    4.62153367410749
C         7.15114773162482    5.52421882761306    3.78056317804826
C         7.37549877967629    4.61380438057665    2.76162024441064
C         4.44841404859906   -0.30557312704334   -3.05814624934986
C         3.38783627748353   -1.19891540720757   -3.12834754275878
C         2.73360930169746   -1.39833911508998   -4.33216251969648
C         3.12639637831237   -0.70372345955181   -5.46319406204261
C         4.17189858697133    0.20241654206807   -5.38889728850238
C         4.83291011739033    0.40370906621095   -4.19136294041891
C         7.72986573115756    0.97353333292457    3.57874155120496
C         8.45637215486579   -0.29917732676051    3.99217400656031
C         9.49903160558167    2.23979183308114    1.65924718438966
C        10.67903210476348    1.30179438882218    1.43567650409165
C         5.44702006386490   -2.74037727573704   -1.00632287279044
C         6.27746870926792   -3.76486992667438   -0.24352020130510
C         7.24994492452280   -1.52200317412004   -2.92499991507141
C         8.59937391922320   -2.19943279474090   -2.72542576314089
C         8.51906497582103   -1.25545525618148    0.62488075329772
H         4.83961334171292    4.30042325811833    0.87065282771740
H         3.22653377435981    3.91751241002946   -0.97913714469218
H         3.35809981531865    1.80781173014376   -2.28369977807684
H         4.73498998024929    2.56916700936175    3.27934986128788
H         4.33295428739014    4.20165555160334    5.08959563586007
H         5.89038733020821    6.08926453414381    5.41440660838257
H         7.82830693142505    6.35496863934000    3.91196706835787
H         8.20847292754158    4.73965483731044    2.08771445702664
H         3.06944761109501   -1.71873008674113   -2.23824640877595
H         1.90986422323753   -2.09441692605105   -4.38273589377327
H         2.61381909014454   -0.86196761951339   -6.39993178813353
H         4.47509789539020    0.75334181107437   -6.26654106245328
H         5.64539193984007    1.11224460198593   -4.12019838558606
H         8.08855383155613    1.84110497986443    4.14390167949493
H         6.65995978888218    0.84688668597374    3.76657696766416
H         8.28912793261722   -0.49889721069997    5.04874200613781
H         8.07179858621421   -1.13991935600363    3.41933140262550
H         9.52763351930107   -0.22295435056583    3.82374570346145
H         9.40738214537084    2.90495987679969    0.79545836555936
H         9.63798225748124    2.83672540411734    2.56664155115156
H        11.60172751108329    1.87318325136862    1.35459280680052
H        10.78628546634813    0.58948564135757    2.25004533947837
H        10.53494972992596    0.74984407731219    0.50988845105337
H         4.59007369639571   -2.45284851028299   -0.39010638374538
H         5.09110895429585   -3.14890897069937   -1.95808311620501
H         5.67998923125155   -4.65000524510166   -0.03355841994344
H         7.15586482028412   -4.06997494275307   -0.80684062968350
H         6.60225515029875   -3.33823697201982    0.70274472351151
H         6.59062720332368   -2.11980794218624   -3.56459991796803
H         7.41303231774621   -0.54882889360969   -3.39610069451474
H         9.09156711802081   -2.34242996929866   -3.68543889968114
H         9.23277108227202   -1.56905485403830   -2.10535046447831
H         8.49693871771506   -3.16888593809944   -2.24472044524480

