59
CSD_code = TUXZES | q = 0 | S = 0 | Stoichiometry = C24H27Cl2N3ORuS | MND = 6
Ru        2.99857142486305   14.44134598082767    2.42479763778106
S         4.62696689937030   13.30442797513995    1.30361409530516
O         5.93579302289444   13.94493465296003    1.38012395688458
Cl        1.26141087294805   15.51013012484799    3.59493132051942
Cl        1.71031035446718   12.62362652398832    1.57197983267625
N         2.56299796971330   15.59860507967948    0.85798228411473
N         4.22230075838133   15.80887549632436    2.77005436301346
N         3.70184416367497   13.79349703183177    4.25446964136051
C         1.56782657260374   15.46828270078121   -0.01194653644864
H         0.97304772767905   14.56719757114351    0.08190437472737
C         1.29649744081529   16.41124761464771   -0.98590556070159
H         0.47467214104069   16.25947166613090   -1.66641331178171
C         2.09275533310641   17.54685755983486   -1.06003388131030
H         1.90920902342992   18.30312961906834   -1.80757641150014
C         3.11751169635890   17.69889061852585   -0.14524896919590
H         3.74016107238282   18.57881668118939   -0.15830387537010
C         3.33217114455016   16.71480188299955    0.81739666735140
C         4.35078316974362   16.78618032085802    1.85742573352553
C         5.39042147729596   17.70382260766459    1.95371045218548
H         5.50229969669391   18.48605554849555    1.22080495275600
C         6.29680424026546   17.58047448883136    2.99587865120203
H         7.11740975925455   18.27509307268583    3.08320675837650
C         6.15603986859558   16.55223881722628    3.91590227951307
H         6.87053667630853   16.43491747154635    4.71378601528467
C         5.09137839146250   15.66865157325515    3.78064916580135
C         4.74317022349054   14.56436607701500    4.66601415317403
C         5.35771013606213   14.35214521091719    5.89521904479681
H         6.19339134007917   14.96446607553738    6.19086625373169
C         4.86704501125431   13.37730007283557    6.74506049540372
H         5.32357852125004   13.20542518230332    7.70844298604562
C         3.75368089028201   12.65285981781255    6.35649765044756
C         3.19907824266751   12.88932924120538    5.08827967420703
C         1.97286164684809   12.12569113090325    4.69339821536951
H         2.17156846202357   11.54527326996512    3.78776409732117
H         1.18375642478297   12.84047907015978    4.43341445856515
C         1.54118525484205   11.19293053333664    5.81757353628464
H         0.65109534869660   10.62729801795362    5.54646072375725
C         2.78251859269829   10.42116827189122    6.29241627715458
H         3.53493876257039   10.19679289015112    5.53755263334334
H         2.55166782747433    9.51681471635728    6.84720159460612
C         3.06945600482497   11.63356894237908    7.19899326311792
H         3.56000509217089   11.47738173839685    8.15924673457788
C         1.53957618192130   11.92555636970186    7.18229110730555
C         1.07956823311976   13.37551326368753    7.23501539486310
H         0.00444171900453   13.42090490756266    7.07642221306580
H         1.54905827334341   14.00378026877650    6.48515146809551
H         1.29933303424596   13.79656756942400    8.21491569652827
C         0.79781577323991   11.14601257014774    8.26341378527182
H         0.99977020448138   11.57971225205505    9.24113258285247
H         1.08591734474370   10.09944325686375    8.28950289384730
H        -0.27373392365220   11.19834205411682    8.08279613018600
C         4.30341576785992   12.96531385209797   -0.45667003687468
H         4.26273479344337   13.91929259158760   -0.97326135585155
H         3.34724947368426   12.45610162168969   -0.51099919016426
H         5.11047366050148   12.35944545693254   -0.85067629254989
C         4.84937154962847   11.57610237651553    1.83217468118120
H         5.64857565369637   11.13223199888591    1.25042995055068
H         3.90206903107490   11.07203915131423    1.67496569199827
H         5.11203454968800   11.58787749903822    2.88570385174229

