55
CSD_code = UFUDEF | q = 0 | S = 0 | Stoichiometry = C26H20Cl2N6Ti | MND = 6
Ti        3.02465568242661    2.46447472120204    2.28251323007221
N         3.71576091347127    4.57927349526525    1.76782259767279
N         1.48006502221546    3.26393116303323    1.42493129411716
N         2.36070050949613    3.55470720173154    4.17598117695617
N         4.57530613048728    2.36947040095239    3.44300510924829
N         5.85815365715732    3.45011756866646    4.97944444797058
N         0.22205977865270    5.14062595857435    1.16116653957433
Cl        3.86773501485496    1.68129964603399    0.43248221149363
Cl        2.15904899576280    0.59498978435821    2.99142629776019
C         4.68208731599141    3.35710503307386    4.38542121680849
C         1.39310275155281    4.62867520755688    1.49466835134429
C         3.48067878598338    4.08988985881058    4.70670140116852
C         4.90983074740815    5.16904023628225    1.84342490681150
C         6.59690563929604    2.44462028309891    4.42310558919509
C         0.24948540136310    2.87313504902489    0.98073899747403
C         2.60686341153545    5.34862618877218    1.79801765899948
C         5.79740167894826    1.76066980934725    3.45730866020797
C         1.17569725081681    4.03243656150451    4.55924282234505
C         5.02498704450088    6.53683424626003    2.09061597355714
H         6.00609010214402    6.97754679185500    2.17076530481397
C        -0.53433186471954    4.05592094157682    0.81825869674530
C         2.65026561452385    6.72296481079355    2.02164079542870
H         1.72706478928593    7.27805769494157    2.03236751842916
C         2.23365852888855    5.75995878222851    5.85761706905041
H         2.17234045039452    6.63526791891052    6.48675675871037
C         3.45839473793307    5.19826876928679    5.55031824391313
H         4.38949334362890    5.57480617688041    5.93995236096135
C         1.08169916609030    5.15435155964804    5.38245500409792
H         0.10750658195451    5.52970979902409    5.65314258319182
C        -1.85007116006186    3.96931743534288    0.36860149112345
H        -2.44479312670035    4.86005703151639    0.24180298975816
C         6.12905658309030    4.34504340943642    1.58540828290021
H         5.85155426623816    3.37119858212613    1.17896580651729
H         6.70428901424366    4.20508754568430    2.50062978654028
H         6.76909592074958    4.86186135156313    0.87178885588895
C        -0.26808648047356    1.61347338350601    0.69310746568044
H         0.33917309161455    0.72504620647814    0.81360717500358
C         7.90848499840385    2.03987093970119    4.66143691262407
H         8.51495574082391    2.55157412468617    5.39187219633824
C        -0.05679332092496    3.29581413027795    4.14641486575274
H         0.20420487983664    2.32748605210578    3.71655833034484
H        -0.62898782863483    3.87250036477149    3.41969932044871
H        -0.69309689592550    3.14155718390708    5.01666660921316
C         3.88479935874043    7.31479541882901    2.21023563668432
H         3.96250902218704    8.37261874419703    2.41197339010025
C         6.29533803494080    0.67861230056712    2.73718611020029
H         5.67639472169488    0.16411379255789    2.01277322358471
C        -2.34688206476682    2.71557490067617    0.09169147548214
H        -3.36264365092201    2.61407056380052   -0.26137099400953
C         7.59473903199040    0.30014668077231    2.99536517983503
H         8.01948832847997   -0.53719778071789    2.46188189132990
C         8.38580673782882    0.96997235196860    3.93836300005687
H         9.39783912087482    0.62940264432124    4.10122843900659
C        -1.57112958298685    1.55919226466346    0.24872106744274
H        -2.01085192235864    0.60223471847333    0.00989867400688

