37
CSD_code = UGARIF | q = 0 | S = 0 | Stoichiometry = C14H12CdI2N8 | MND = 4
C         1.55757892510576    3.31398868358041    5.10014599390514
H         2.17419008695425    3.17807952705795    4.23210386900475
C        -0.06713472876079    3.20740150014167    6.48947579190779
H        -1.01274840439284    2.88930740457756    6.88515200952983
C         0.84916716035171    4.05506121392652    7.03002973080706
H         0.85843395507999    4.57696521838092    7.96357562973459
C         4.26840874642308    4.47074028510269    5.68923576378637
H         4.36176513204383    3.54674763500772    5.13378527559711
C         3.05941445464615    4.87132077611728    6.26506877476304
C         3.08796380851939    6.07535747275083    6.97171619821874
H         2.20347213578720    6.48261182219981    7.44434825332451
C         5.27833508476803    6.31796751895869    6.49955029148987
H         6.18032524444059    6.90610158630464    6.59430452100351
Cd       -0.57721139726220    1.13888809544426    3.80643300293637
I        -2.80256446542072    0.43550744837033    5.12798684094095
N         0.38567735729800    2.76085199910222    5.28108448678596
N         1.89040165087148    4.11726116078029    6.13784102978726
N         4.19215012363635    6.78628871117918    7.08776058782446
N         5.36208441669645    5.19678790704955    5.80664324269975
C        -2.71166546712714    3.31456960533627    2.51311572435756
H        -3.32841536618799    3.17850898215899    3.38103817911037
C        -1.08660858027798    3.20839830349834    1.12414652250660
H        -0.14082420145592    2.89056804110157    0.72867604543183
C        -2.00287798841748    4.05603760494163    0.58351521713168
H        -2.01202631982145    4.57810373061773   -0.34993891997707
C        -5.42242775322916    4.47096990966797    1.92359824706211
H        -5.51561124773311    3.54699358278845    2.47910290493933
C        -4.21344086931490    4.87178189799165    1.34792474777642
C        -4.24217361352570    6.07564922879673    0.64099973663510
H        -3.35774447596532    6.48299853629750    0.16833034855061
C        -6.43264252666014    6.31786381132472    1.11292233026640
H        -7.33471930283066    6.90584395815568    1.01806874270762
I         1.64802253741319    0.43547961756048    2.48459156051832
N        -1.53966954194167    2.76157506140791    2.33234430734788
N        -3.04431996646741    4.11797260767401    1.47546745220552
N        -5.34651364834565    6.78629924068501    0.52470077304201
N        -6.51625095473845    5.19675031420045    1.80595478644473

