47
CSD_code = UGAZOS | q = 0 | S = 0 | Stoichiometry = C20H23BrCl2Hf | MND = 12
Hf        9.58428656356092   12.40796933308065   12.50102055722125
Br        7.77340393006283   13.64776569150832    7.89333575822849
Cl        7.34464833951598   12.67442105341982   12.02359172571204
Cl        9.93065932037459   14.68789637329659   12.44344149982743
C        11.35029015193926   12.37556903952949   10.69883847784599
C        10.40489727300098   12.96104252118246    9.85739824217815
H        10.50404244234716   13.91128525027670    9.35749997128274
C         9.32266497246479   12.06073325304925    9.70150898109089
C         8.14630927838816   12.10542890541027    8.94373639289867
C         7.27200804831825   11.04630601401143    8.94667360361151
H         6.36745718044679   11.09087012475951    8.36099796042703
C         7.55150867031353    9.90346537533827    9.70580373676996
H         6.85076925243687    9.08324444180734    9.67962342805427
C         8.69215855936381    9.80717869687506   10.46870101206695
H         8.90624991901499    8.89990538192692   11.01769631156117
C         9.59570347535674   10.88239348264673   10.48661913765800
C        10.86067270482263   11.09720557007657   11.14957633938062
H        11.49948470965345   10.29924271458790   11.50629449023408
C        12.68634364892761   12.96179999934736   11.05396834326026
H        13.19166370464152   13.30813017524036   10.15314677472969
H        13.31952135399733   12.22335074132604   11.54189356267726
H        12.56705167230845   13.82416572644649   11.71462632297656
C         9.02871498188301   12.37975870154804   14.77249549074561
C         8.86100055059325   11.02495685696007   14.33679328998082
C        10.15150638515865   10.48948352650265   14.07630529551195
C        11.11528455435027   11.50794642014035   14.32311112070650
C        10.42903108279582   12.66833285733518   14.76928549456583
C         7.95160248200447   13.30951404319207   15.25596464452018
H         8.03492329577884   13.45966354852231   16.33391487727029
H         6.96571337543055   12.90242454085883   15.04274536641095
H         8.03281373979473   14.28554859002562   14.77117645312918
C         7.57370269173966   10.25009392545376   14.34260375639278
H         7.30153831264026    9.97992838022178   15.36475539899324
H         7.67155257196146    9.33257074709815   13.76648253268291
H         6.75786785061750   10.83401002623055   13.91830612560531
C        10.44742539813522    9.03676459558264   13.83797020331316
H        10.28944523746392    8.47406008576595   14.75982710128580
H        11.48090519068969    8.88624378413820   13.53553218344685
H         9.79721780824095    8.60775609714396   13.07707437381618
C        12.60588446409947   11.33183971383765   14.35391737222692
H        12.91924062533965   10.96749803120897   15.33436565300323
H        13.11260013171995   12.27815196742852   14.17610772169030
H        12.94539301836435   10.61061421017052   13.61252929624786
C        11.07029009609160   13.90245143440454   15.33386660603931
H        11.40834240421283   13.71033479760576   16.35440479839649
H        10.36627792132460   14.73015906198091   15.35818112626447
H        11.93413065831663   14.20922419148984   14.74589108807037

