39
CSD_code = UHUZEC | q = 0 | S = 0 | Stoichiometry = C11H21Cl2N3OPt | MND = 4
C         0.45450947004942   10.76311097560351    9.07466370735883
C        -0.20840057927266   11.64479318677267   10.10111161102025
H        -1.10056303595666   11.14532151930925   10.48123615876543
H        -0.50230532368314   12.58785519604991    9.63625303682699
C         0.76318790894921   11.90784559245748   11.25354808606350
H         1.05636041292216   10.96877645321515   11.71511088420878
H         0.29327001341461   12.53882405650533   12.00392625853598
H         1.66041530063498   12.40412208217140   10.89164857110897
C         0.09884205711949    8.42362307995002    8.64486998492324
C        -0.74379588224957    8.42089449223824    7.39644726347347
H        -1.02006848002179    9.44571269809527    7.14464597308297
H        -1.64842829872142    7.84018728575579    7.59183050170726
C         0.03323160211339    7.79094481191928    6.24040954709093
H         0.93623818644753    8.38077741548886    6.04039884762783
H        -0.57875766190752    7.78351440066667    5.34271444958163
H         0.32573305453738    6.77409860472270    6.48723381846619
C         1.32076847578624    7.14234284128528   10.17839462044585
H         0.84627872357522    7.59422880417579   11.05662473045106
H         2.21898697543955    7.71730002248683    9.92778174839931
C         1.64445992209250    5.67926853971623   10.41365959645908
H         0.73889596775635    5.11955627416715   10.63381213180284
H         2.33080090908602    5.58961329638744   11.25009932410546
H         2.11121806122420    5.25667412891356    9.52868101438107
C         4.00427748211377    9.37098326827440    4.48877084143885
C         4.89504137496896    8.99598973425783    3.42746054776841
H         4.31441724438536    8.90090500797865    2.50500372296362
H         5.33034093145540    8.02115109323193    3.66669789150959
C         5.99807329790608   10.04573519280741    3.25694229581321
H         5.56645062332562   11.01344054320447    3.01431806499376
H         6.66620574419556    9.74817282462824    2.45308733157077
H         6.57398145210855   10.14369058351067    4.17367452265117
N         1.18050350229085   11.25693031885162    8.12585898565654
H         1.22181485476189   12.27682069204122    8.11737829242932
N         0.40710314700958    9.45716423855542    9.32094370108523
N         3.30686185249046    9.69015473585569    5.34784600128561
O         0.41124762853653    7.22522290025666    9.07511920791056
Cl        3.49635442353189    9.21102915656127    8.28446477372161
Cl        0.98702759104742   11.56866001217678    5.17070912835293
Pt        2.24742107054254   10.38236393974777    6.71442282497312

