24
CSD_code = UJEKUP | q = 0 | S = 0 | Stoichiometry = C8H10Cl2N2OPt | MND = 4
Pt        5.66339082094547    1.54233053083240    0.19035640749084
Cl        4.68935962082794    2.89276373029312   -1.28875347799514
Cl        7.18804261629693    1.01574218410491   -1.36118885380132
N         4.31303294847998    1.88476188048116    1.64057942174903
C         3.23838394010448    2.66778417173127    1.59799404152375
C         2.36272244290799    2.77607055795321    2.66207860159141
C         2.60679905230981    2.04572083432286    3.82244299117361
C         3.71994764477660    1.23196396597038    3.87357241873561
C         4.56462082658100    1.16484176905234    2.76255305952881
C         5.75408981356253    0.36772557235763    2.69651619973368
N         6.43584008538094    0.38871666525335    1.59505661589646
C         7.68862087531692   -0.30479294084128    1.53378903385876
C         8.84779507807341    0.70661373405623    1.70507251661939
O         8.77267180846469    1.39140003809501    2.92835140854443
H         8.12724726266073    2.10304550027042    2.85299418036588
H         3.09019141245881    3.21520798162483    0.67599807455809
H         1.50269583101116    3.42063298601856    2.58432096649093
H         1.93751118576970    2.11432598850023    4.66575336630512
H         3.95023782504008    0.64720331919415    4.75001110132421
H         6.07152171750486   -0.21925301447838    3.55348319066955
H         7.75130556916561   -1.05765835679961    2.32753284066404
H         7.79506536892547   -0.76564397823770    0.55019295446762
H         9.78743107915213    0.15135225145931    1.71743866535745
H         8.84357517428229    1.39484462878584    0.85275427514747

