61
CSD_code = UJUWOM | q = 0 | S = 0 | Stoichiometry = C26H28CuIO2S3 | MND = 4
Cu        6.16331152672644    3.64092574541312    1.81771509168441
I         7.15487276771745    1.77518487866929    3.12135664177816
S         7.24614778998157    4.86523788975652    0.07995854960819
S         4.25747774571937    3.08455034817226    0.32888905501350
S         4.80330797501946    5.21856287409115    3.06798340132074
O         5.06469470772618    7.05041318695305   -2.25949612578321
O         1.91999435550813    7.11793750605405    1.23037908094298
C         2.34399768257675    7.08137751073524   -1.51248385087546
H         2.90238247758240    7.85391378321375   -1.00507499480712
C         2.80481259850902    6.58737976149273   -2.72458700413510
C         2.08398245054418    5.59309996512444   -3.37096887187581
H         2.43405195846597    5.20042384557866   -4.31435042788282
C         0.91818153267553    5.10343310280654   -2.80794461626166
H         0.36028515832045    4.33115810184570   -3.31508870160929
C         0.47776918575267    5.58099331084404   -1.58602620115895
H        -0.41990844562304    5.17866416274766   -1.14022925506873
C         1.18986267802625    6.57568042818685   -0.93076100158362
C         0.76169126237999    7.08749591687381    0.42029331137915
H         0.33586980632146    8.09822686478745    0.32882119544274
H         0.00247344697926    6.42426362646624    0.85472194940674
C         1.81518072371857    7.40047206769549    2.56390706094200
C         0.63594315436610    7.75510223340396    3.20385046419252
H        -0.28626167540890    7.83854986572104    2.65028504706896
C         0.63555896133641    8.00617905689047    4.56621928037556
H        -0.29001694340130    8.27670217442207    5.05144591586501
C         1.80390087832804    7.90915875715359    5.29908479798817
H         1.79871856435006    8.09968969741297    6.36055381948290
C         2.98310112599942    7.56742331408236    4.66158531388832
H         3.90249493226538    7.48360748342496    5.22179824340491
C         3.00925583326403    7.31724184953357    3.29850071393063
C         4.27743099388833    6.93282337140584    2.61758768726226
H         5.11404499399850    7.54449005622844    2.95381622584284
H         4.17947112904276    7.00099507744265    1.53676361241877
C         3.30913173480174    4.26516878067142    2.66914707969794
H         3.47786433918720    3.28515136502905    3.11798626945247
H         2.47034435187098    4.74964566431632    3.17314503571486
C         3.02265311938404    4.13223299896994    1.18334257577104
H         2.99966871143844    5.10362347596603    0.69183657628513
H         2.05438204487913    3.64693581669838    1.04662012158990
C         4.79252392166918    4.12885594378703   -1.07858518424821
H         4.30559207376005    3.73562474120671   -1.97318490887071
H         4.43892513446814    5.14468056166215   -0.90950850392966
C         6.29877023564044    4.09089342327051   -1.26734256545577
H         6.57834505776046    4.59875325472374   -2.19197605053863
H         6.65631733963014    3.06098943268596   -1.30312042842290
C         6.82543892759129    6.64468174319481   -0.17115051771755
H         5.75239921400140    6.77217927154320   -0.05426864525184
H         7.34931673196369    7.14626850864250    0.64176971779003
C         7.29036136393199    7.12750008584010   -1.50254261040324
C         8.63777265400313    7.36019477425919   -1.73152378280979
H         9.33589848373203    7.19379486924580   -0.92471363543069
C         9.08785509700430    7.78770043827138   -2.96745874911270
H        10.13935425647256    7.96374068535205   -3.12954457234348
C         8.17912655431280    7.98962053951650   -3.98961307358851
H         8.51514042655503    8.32876749081847   -4.95758992742622
C         6.82871995393433    7.75906814572077   -3.78612008918975
H         6.13807568040478    7.92655257364505   -4.59760809862734
C         6.37461619753054    7.31871013495415   -2.54976949922188
C         4.09789394539672    7.11213066797149   -3.29154142679088
H         4.41035903199185    6.50077791567200   -4.14805984945076
H         3.97077208402684    8.15229888173692   -3.62783066566984

