67
CSD_code = UMAZOX | q = 0 | S = 0 | Stoichiometry = C18H42Cl2O2OsP2 | MND = 6
Os        3.83995415882239    4.52063559230523    8.30316324336978
Cl        3.64947592960396    2.76117665176931    6.73684028643692
P         2.83856483185365    6.09907970823415    6.64704407143091
O         5.32925186155311    4.84287553205111    7.75948923109635
C         1.97881122412179    7.51388477019202    7.50746359002584
H         2.77341772453365    7.90480894061645    8.15781617222983
C         1.48601967356318    8.64138425969528    6.60517253341648
H         0.62561784158887    8.33196170404182    6.01789198938010
H         2.26097224624481    8.99535561974738    5.93022413428440
H         1.17689332869609    9.47896924498896    7.22899070671134
C         0.86134866345305    7.00680668311310    8.41734489677440
H         0.63965515196546    7.75003594460846    9.18054859678030
H         1.16687934471602    6.08947532822045    8.92078333443265
H        -0.04886830356291    6.81125091600962    7.85613212193804
C         1.72614368736156    5.19827216896962    5.45038521717531
H         2.39130045900395    4.41431240789618    5.06299610641482
C         1.20530906770694    6.02175180630377    4.27619892455221
H         0.71800864913321    5.35222870049883    3.56873677102329
H         2.00449594596925    6.53833649112637    3.75100973698758
H         0.46952191557647    6.75316656023150    4.59925745918292
C         0.58349371038038    4.49776693597536    6.18353832845697
H        -0.23102884045320    5.18541962980126    6.39682739611840
H         0.93793112801653    4.07123602735940    7.12208597152273
H         0.19423173825266    3.68604232726512    5.57235935056029
C         4.12997737843209    6.90666095750245    5.57883734194837
H         3.62096868213663    7.57967602667478    4.87784117060962
C         4.89006193172898    5.83542048293642    4.79936685812358
H         5.71273553033675    6.28868486451788    4.24828647385575
H         4.24970071018638    5.31519024518310    4.09078536803045
H         5.30656171792773    5.10369635399754    5.49173780781153
C         5.08904889334408    7.70905808773721    6.45583498307319
H         5.50806322540355    7.06320040236699    7.22763570812081
H         4.59456432528116    8.54900099059923    6.93825866114932
H         5.90998580554102    8.09544859262131    5.85368477258596
Cl        4.03099112471035    6.28050442186740    9.86827187305310
P         4.84228095358289    2.94118294821362    9.95827798769553
C         5.70235109932461    1.52778301127405    9.09586399730425
H         4.90751386913137    1.13742228212852    8.44546160985899
C         6.19580144207284    0.39951657338721    9.99675501103734
H         7.05645699052251    0.70858380996489   10.58384753583046
H         5.42123218473289    0.04481457951935   10.67176965397147
H         6.50469950591060   -0.43739065296673    9.37195753158403
C         6.81925028711948    2.03627717065185    8.18588687348751
H         7.04040707364508    1.29390996974826    7.42153649369658
H         6.51320331019494    2.95439843338415    7.68393342555378
H         7.72976792831883    2.23109100970600    8.74707467712484
C         5.95431164348035    3.84124496820445   11.15590640924295
H         5.28917544336213    4.62503725453114   11.54373489405437
C         6.47464490150457    3.01661343959444   12.32947943801043
H         6.96212131302269    3.68534224646548   13.03753133594677
H         5.67519213838059    2.49987138746024   12.85414154596543
H         7.21014874920415    2.28515403128977   12.00588450509766
C         7.09724788857074    4.54211830073389   10.42343869033165
H         7.91176976741716    3.85440345632354   10.21015832509605
H         6.74305627601940    4.96904554039677    9.48493462162045
H         7.48637490201190    5.35360007874082   11.03511631719659
C         3.55068561634625    2.13216713657071   11.02520912667066
H         4.05967054486361    1.45823231119788   11.72528194387660
C         2.79044633804124    3.20235218881302   11.80601701107662
H         1.96778047493195    2.74824671212168   12.35645943669661
H         3.43076065726358    3.72167522402006   12.51532955600825
H         2.37391677262859    3.93499966415027   11.11461254183927
C         2.59176441413150    1.33090602306703   10.14701370566285
H         2.17266959210780    1.97782599522409    9.37614522609481
H         3.08641327983100    0.49175719195353    9.66336997009964
H         1.77087222891226    0.94348412954780   10.74856641843027
O         2.34995195028280    4.19895820755708    8.84516299517295

