55
CSD_code = UNICAW | q = 0 | S = 0 | Stoichiometry = C23H28ClIrN2 | MND = 8
Ir        8.82910768626278   -2.04855010904282  -16.29859257293667
Cl        9.17140670391425   -4.09502082157315  -17.38821114809486
N         7.37857650547117   -2.95902925243519  -15.21770258350785
N        13.28348461571663   -3.21011924261179  -13.40432381327003
C         9.88838229154478   -2.79987592779075  -14.75207890148759
C        11.25805605078906   -2.73831370418488  -14.61771078211272
H        11.83451744459244   -2.26100006725493  -15.39205658964297
C        11.92167650521222   -3.27930886058054  -13.50364072651105
C        11.14076427645055   -3.87656687266812  -12.49740060877551
H        11.60972837839064   -4.31160451702577  -11.62988535390396
C         9.77667999630669   -3.96484725083105  -12.62569484677347
H         9.20765707235453   -4.45789064107154  -11.85102931023482
C         9.12913925740048   -3.44869061490946  -13.74993419464156
C         7.72577342584087   -3.55339172413388  -14.04455138743177
C         6.76418406755615   -4.21414070306218  -13.27401943056907
H         7.05876862397042   -4.67864000787572  -12.34714014387131
C         5.45886487583086   -4.27594312931770  -13.70753052548165
H         4.70643856665792   -4.78203741557381  -13.12177967002793
C         5.12801736131348   -3.68587881734729  -14.92438234661952
H         4.12218627536310   -3.72653346207855  -15.30987666658458
C         6.11856540425467   -3.04826611386602  -15.64083163266531
H         5.89611821083335   -2.59850908047682  -16.59789422440098
C        13.96789312302700   -3.56034394128209  -12.18572810990224
H        13.43719684534360   -3.15419677587804  -11.32423073240199
H        14.96572476729264   -3.12415598976673  -12.19931353460271
H        14.06481973457634   -4.64587264214314  -12.06047565896347
C        14.09672490770558   -2.96055577165731  -14.56976869035251
H        13.66269211990250   -3.43924322903399  -15.44849593209786
H        15.08986419705640   -3.37872190696415  -14.41378400309752
H        14.20125039080865   -1.88738264836656  -14.76694214641959
C         9.95087864301799   -0.71355059249241  -17.65685487277058
C         9.79981226153974   -0.02663767439627  -16.41934311028203
C         8.39560258598994    0.13164840398609  -16.19304134281600
C         7.70028054494203   -0.26893378221890  -17.39881774296465
C         8.64096287552474   -0.79433429194913  -18.28232216558733
C        11.22657806973315   -0.97521536551666  -18.39835509719322
H        11.38822693910033   -0.20270273173983  -19.15334534755254
H        11.18138952526544   -1.93934407227412  -18.90097453552644
H        12.08097096579832   -0.98120716361855  -17.72550659536503
C        10.87757275794376    0.55634810875940  -15.55806353067858
H        10.83751045273180    1.64546561169746  -15.61710601204401
H        11.86013700303995    0.23429621502792  -15.89131732281550
H        10.75751186409220    0.26677416044122  -14.51563272831915
C         7.79231963998484    0.93689133363832  -15.08455183790601
H         8.39878654494137    0.86777507397832  -14.18432424940561
H         6.78662001952816    0.59390243565882  -14.84743202825452
H         7.72999406340976    1.98785675140947  -15.37584008081111
C         6.24575957913093   -0.03521770256934  -17.65906488657733
H         6.09838099104107    0.96556442610537  -18.07149366142412
H         5.66441872009746   -0.10344168180795  -16.74061613463103
H         5.84931667696671   -0.75353274548174  -18.37503076020247
C         8.42135090143010   -1.30388810165099  -19.66847269568467
H         7.36986880770002   -1.26328119961326  -19.94256762211051
H         8.75974525473194   -2.33717583672548  -19.74880466365691
H         8.98974463058036   -0.70612833784872  -20.38251470805173

