47
CSD_code = UVULAZ | q = 0 | S = 0 | Stoichiometry = C20H18ClMnN4O3 | MND = 6
Mn        1.89608128351854    0.35256162629776    7.49844662643344
Cl       -0.06943479063621    0.11075086883673    8.27753666065308
O         2.74936872213744    3.96360182782230    8.98902495886752
O         4.19046792299176   -2.67740378012231    8.53270337856832
O         3.86926154396057    0.65103456917079    6.32399597417497
H         4.49506833594287   -0.07296017857983    6.45709274141079
H         4.31966303918866    1.46298206455513    6.58923042708586
N         1.28049171337398    1.94803656131705    6.45910322794507
N         2.48680500081390    1.67468181819631    8.69274600021936
N         2.89283011270329   -0.75168389116063    8.60521832396488
N         1.66385684617980   -1.29478997715271    6.45572681648885
C         0.62295410568450    2.05336496904880    5.30248585839685
H         0.39519879949985    1.12752401231903    4.79244645034964
C         0.23379148312680    3.25832908880063    4.74939484841601
H        -0.30779584645269    3.26853866027172    3.81678575934118
C         0.53970645003853    4.44064010204870    5.41287348326115
H         0.24201822716382    5.39648144920113    5.01043687619938
C         1.23425167030654    4.35088350649999    6.60275182634412
H         1.51765085576459    5.21704033835861    7.18057337234868
C         1.58130019385235    3.09964308392160    7.09708993278568
C         2.33364588240278    2.98167660681155    8.38590650433269
C         3.13556096677385    1.21407008799835    9.82252235959561
C         3.58983682565690    1.94597487939865   10.91369141342839
H         3.39937147528136    3.00673816976704   10.95093402442796
C         4.26156149468476    1.31345436578236   11.94767763148776
C         4.72000841572266    2.11373740061821   13.12786850488707
H         4.45553492447115    3.16033483964933   13.00505892535576
H         5.80054703999238    2.03922801084523   13.24808884446879
H         4.25967494522997    1.74374387257707   14.04351081474990
C         4.50553376849902   -0.06863428169120   11.89011771021867
C         5.22547623527592   -0.75749490215539   13.00829146060034
H         5.33442022753545   -1.81766573951128   12.79689942934478
H         4.67787971742710   -0.64359640308015   13.94343643157910
H         6.21645668942470   -0.32753860810927   13.15161592507923
C         4.07299970035275   -0.80512148442325   10.79848830163648
H         4.25597258066684   -1.86679802676921   10.74614489771696
C         3.38052902102398   -0.18358326406389    9.76723457339760
C         3.30382098494089   -1.94436744295003    8.11186880473007
C         2.49900306677435   -2.26618323252073    6.89189061258332
C         2.56760750594005   -3.52394014627126    6.30882128804875
H         3.27324528713627   -4.23269720378622    6.71405106440488
C         1.72366012383901   -3.83009085804786    5.25826327986793
H         1.74960161620880   -4.79949087717471    4.78560576132889
C         0.81601316857730   -2.85883741148443    4.85217222762027
H         0.10382959157653   -3.05908714786913    4.06740100672067
C         0.82303983539960   -1.62356943135754    5.47066271025799
H         0.10373324002559   -0.86801849183334    5.18381194887743

