31
CSD_code = UZADEF | q = 0 | S = 0 | Stoichiometry = C13H13Cl2NPtS | MND = 4
Pt       -0.39091119612580   -5.42191358330492   16.14940366182003
S        -1.48294918410441   -6.29075267386463   14.16895819254501
Cl        1.64907081675694   -6.06304158834356   15.49621936171948
Cl        0.44500739043444   -5.03572156506263   18.21550222131679
N        -2.31586459903271   -4.86235868594109   16.61080634877096
C        -3.26057041156976   -5.71117214650928   16.17202777837195
C        -2.79558423117558   -6.86158567620059   15.33977799709687
H        -3.61340680923939   -7.32298536576723   14.78663403782631
H        -2.29530247392857   -7.62350576224908   15.94498994775532
C        -2.67914699258730   -3.73491863620687   17.23390812289641
C        -4.01745662019569   -3.47814571180299   17.51489037383438
H        -4.28088406231353   -2.57006540618019   18.03279674334618
C        -2.19548218463742   -4.74435470899470   13.61824643287273
C        -1.39706949180866   -3.60921415016281   13.65038056939688
H        -0.36910556293970   -3.68884460032875   13.98842054660681
C        -4.60741950775617   -5.50017368225102   16.41009651360148
H        -5.33708646726465   -6.20613783954041   16.04686336731147
C        -1.62820689632608   -2.74275476119700   17.58320451910602
H        -1.20989711720984   -2.98037393403239   18.56105760819839
H        -2.04155332448729   -1.73795002351426   17.60687208142390
H        -0.80513354802013   -2.79589904197549   16.86807440522280
C        -4.99272835425409   -4.37600005785003   17.12430491539184
H        -6.03322404341568   -4.19490943480074   17.34321143725583
C        -3.50417408169865   -4.67646478920079   13.16759821636418
H        -4.11410379314369   -5.56548138402160   13.11914967359341
C        -1.92344843518241   -2.39381748713190   13.25238086984978
H        -1.30682023910162   -1.50882912190040   13.28233876595496
C        -3.24050578439705   -2.31330272744088   12.82846752068716
H        -3.65435647100340   -1.36250941383161   12.52933033712943
C        -4.02584989673400   -3.45308989766524   12.78322605567633
H        -5.04863642756105   -3.39442614269573   12.44306137708512

