54
CSD_code = VALFEV | q = 0 | S = 0 | Stoichiometry = C24H17Cl2CuN10 | MND = 6
Cu        3.88174548029597    3.10912703403214    4.47839986310484
Cl        5.12833117073030    4.96438973416842    4.17358393425574
Cl        3.30625469394907    1.30704938659152    5.70594542154941
N         7.70261372865621    1.93191052966410    6.17261768379882
N         5.11370665804925    2.12261124616999    3.59050229685483
N         0.43637556727178    4.04708221719608    2.58048297994992
N         2.68923295387927    4.10242086353894    5.42812317670086
N         5.72358513956110    2.96012060632334    6.30657623743550
N         2.14414704867648    2.84651230827779    1.77057579398259
N         2.44448177636200    3.20763985320763    2.99352616220861
N         6.38833795798830    3.11211174279809    7.44104302512514
N         8.16003552870984    3.13310825112614    9.55169757679015
C         0.92710501424954    3.35994237158466    1.53153298093440
N         0.78919819538743    2.49474678551089   -0.68479310352384
C         0.20891221823627    3.19813656350574    0.28262346376885
C         1.41373068961295    3.93045588339415    3.47819821856120
C        -1.05435358700436    3.77878332776731    0.13661034795148
C        -1.72215796949008    3.61265145589533   -1.06089552209376
C        -1.11518112093393    2.87802614261208   -2.06963899643475
C         0.14111406550877    2.34377224674742   -1.82253573550262
C         0.57020570778803    5.18407346735082    5.46177282603878
C         1.54502412336784    4.42150391431827    4.81131119753916
C         2.00335456790451    5.25687477775954    7.36963356025808
C         2.92048720175244    4.50197480562072    6.66716650494511
C         0.80444421938155    5.60368680975514    6.75112239990990
C         8.53992902020983    2.48299855119960    8.45083535859934
C         7.23343071253515    1.04953309684773    3.54366534804151
C         9.76741760893503    1.83361500703240    8.33440781385027
C         6.53988983747499    2.24052528311198    5.55052908159579
C         6.26122562983953    1.80802307170715    4.19753118869483
C         4.88790678369322    1.71222950324405    2.34996809281446
C         5.80911927528521    0.95734722359561    1.64465783670453
C         7.58695453779546    2.48978742672909    7.36032462467429
C        10.62884461606158    1.86926241339398    9.41696792422906
C        10.23691554824888    2.54453750129858   10.56325833690888
C         8.99136354629960    3.15822140904727   10.57474553380510
C         7.00787619402956    0.61785968236603    2.25282202899159
H         2.22261124169202    5.56636326756268    8.37822971713262
H        -1.47307611691141    4.33819996910564    0.95729279928403
H         3.86540234292717    4.20106653507484    7.08921044228600
H        -0.33403458082827    5.41522988267279    4.92321636682987
H        -1.60252304604443    2.72425534622141   -3.02019566287939
H        10.01298371089967    1.32626962982015    7.41624898285256
H         5.57546738882854    0.64980079530540    0.63861959808039
H        10.87935814919834    2.59541224373852   11.42799889528367
H         7.74877374234267    0.03043567980748    1.73197241211636
H         8.63985522023041    3.69704430715099   11.44473173140442
H        11.59006266644069    1.37919760277614    9.36908270365186
H        -2.70076282055572    4.04749829540763   -1.20942448356133
H         0.65764240594120    1.76271182603778   -2.57644226205748
H         3.94463629292491    1.98717800121592    1.88824259587479
H         0.06987221826787    6.19374442085993    7.27803282982643
H         8.13962105858381    0.82661758973382    4.08281484295574
H         6.02340578575379    3.62452211306073    8.23027302792540

