53
CSD_code = VECKET | q = 0 | S = 0 | Stoichiometry = C23H26Cl2NTa | MND = 6
Ta        2.17245550946853    4.68422497353236    3.79655130937597
Cl        0.80135549494055    4.97169658805368    2.01329901445457
Cl        3.62235201738083    4.23160233937129    5.48839933574767
N         1.13294288705395    1.91880171017431    3.66901612055214
C        -0.27580185188996    2.26398667417198    3.86147548245175
C         1.63602269025107    1.17181987906267    4.81526674916454
C         1.27673788803632    1.12562586072951    2.45783530904426
C         3.63226893342086    3.49580636506792    2.39642963853242
C         2.73361229590565    6.95382909729708    3.93742258449535
C         0.45291343301111    4.25898163147232    5.18299818304637
C        -0.45749171944374    3.21908291858846    5.00939479480147
C        -1.52994973434624    3.06607234198381    5.87994929604426
C        -1.71040561925418    3.94431173904142    6.93320636388381
C        -0.80557568986599    4.97229343384601    7.12732883886379
C         0.26486600114728    5.11833877022687    6.25791971470659
C         4.53437497186876    4.56267830912663    1.96073712216542
C         5.69389039925869    4.87326580508445    2.68361690503756
C         6.51330675549003    5.91400049900481    2.29370367432659
C         6.20135176188571    6.66752839741706    1.17199108311261
C         5.06336937155097    6.36744238396358    0.43854667203977
C         4.23757277576822    5.33073690207970    0.82701666762418
C         1.81507685121827    7.78067435042653    3.14175226380612
C         2.17700339464437    8.24434356808598    1.87597228416182
C         1.29180742604236    8.98107659502381    1.11238358301264
C         0.02773979186203    9.27399406458346    1.59642314167946
C        -0.34533112140181    8.82366259706597    2.85282003733845
C         0.53704027785495    8.08721715795558    3.61799242326920
H        -0.62069785016987    2.75479265207146    2.94447184411533
H        -0.88640034917431    1.35948310426985    4.02088945708146
H         1.51678794538028    1.76748755758430    5.71841878542252
H         2.69579306065098    0.96769812116471    4.67404361215014
H         1.10471514736130    0.21813582442938    4.94500211867116
H         2.31927575496357    0.84293221726807    2.32849024939414
H         0.95988250414174    1.71763710769631    1.60075716419897
H         0.67080543205020    0.20868950233946    2.49681659471341
H         3.08355407709461    3.06832069868091    1.56115804978910
H         4.15165355679684    2.71826483400848    2.95411015793784
H         2.68535277145611    7.22048402848338    4.99546346446359
H         3.76359788697621    7.06224362384985    3.59362131679500
H        -2.22805625183179    2.25398268024645    5.73040829394940
H        -2.54702841633901    3.82024000304549    7.60453569622840
H        -0.92816998006544    5.65686567623085    7.95400881862025
H         0.97496596181451    5.91779253484645    6.44068988859152
H         5.94219914956487    4.28636808561512    3.55754612317648
H         7.40229492849166    6.14126988012736    2.86426718790981
H         6.84358586558529    7.48128774143227    0.86904171205824
H         4.82197449866384    6.94633982735954   -0.44181498210401
H         3.34828447144127    5.10262502260471    0.25466471166886
H         3.16281258353063    8.01678181935013    1.49419863028232
H         1.58864150809448    9.32924737668296    0.13337239243534
H        -0.66375311538498    9.84881211784641    0.99826763796357
H        -1.33089225086608    9.04708699056867    3.23556882650817
H         0.23511591788261    7.73173601972942    4.59535365516983

