55
CSD_code = VEQSAL | q = 0 | S = 0 | Stoichiometry = C11H27I2O11P3W | MND = 7
W        11.52530131723351    0.19396103655901    3.93560059398644
I        13.72148186138044   -0.39222075174884    2.17044725708691
I         9.88110137363705   -0.39075960359520    1.76040705618567
P         9.32963908699483    0.26368065968149    4.89337615222673
P        13.33687029349596    1.61353260963454    4.58869220194115
P        11.71045809582634   -2.20898722846142    4.17569443601025
O        12.23523063414075   -0.30696659110946    6.93745528763707
O        10.72587014507472    3.21797304121854    3.79994649511731
O         8.35724216293609   -1.00620973505211    4.81517462082991
O         8.48496965505633    1.40270411928025    4.12566071711038
O         9.10212625049435    0.64058151351984    6.45782026763504
O        13.96913715844937    2.73400128871570    3.60910085933706
O        14.71627549998440    1.15106647873233    5.28087903618686
O        12.74080709636670    2.47211667775491    5.82083421807754
O        10.71957343943079   -2.51908238511259    5.41416340632276
O        11.21000095850160   -3.35167595967344    3.18582272612994
O        13.10117494883527   -2.94214280927384    4.59004263727688
C        11.98899262407222   -0.07430751197986    5.82176198934380
C        11.02305638198926    2.09689956852589    3.75300420454102
C         7.82349903467085   -1.71363423837181    5.92425721609278
C         7.07995695367858    1.55037176066961    4.29548326357866
C         9.60417114809376    1.86837014103496    6.95655419567385
C        13.43876376847026    3.20408151977860    2.38324576953797
C        15.97270001436064    0.94433361006800    4.64698865522021
C        13.48741851381480    3.51626646450959    6.44261060964430
C        10.53785922735067   -3.85417155053412    5.88170442069938
C        11.82187058517332   -3.67394685548883    1.93888838701838
C        14.14489352702065   -2.37827370245021    5.35349890150347
H         8.58524090056768   -1.88369169171465    6.68301525795500
H         7.46817486170914   -2.66527714307834    5.53007474116510
H         6.99047730360164   -1.16419998243609    6.36605118213198
H         6.82236454394938    2.52379660560170    3.88051419399025
H         6.80154002586805    1.51080517777738    5.35171649687206
H         6.55471188246016    0.76696797973239    3.74707966007131
H         9.29542867883038    1.92566889651940    7.99990280558916
H         9.18933055987081    2.71219710284713    6.40010962471720
H        10.69318421191051    1.90536688487158    6.89251816625047
H        14.26845437535209    3.28085131542386    1.67917878775852
H        12.98059995026391    4.18328928023609    2.53251450764088
H        12.68768117303808    2.52079475084993    1.97109903378247
H        16.73580929691990    1.26384268973285    5.35687823831861
H        16.05249942963262    1.53001449304821    3.73166319799974
H        16.11097742270841   -0.11169863383854    4.41078515172718
H        12.78149997890366    4.30552801261045    6.70148178389791
H        14.24674354002211    3.90729749223730    5.76398250793356
H        13.96596941805914    3.13398937599178    7.34503875125049
H         9.68942497775325   -4.31274154932794    5.37407291122344
H        10.34846124508102   -3.79889000048440    6.95377257915550
H        11.43269149271364   -4.44995812270531    5.69557188461969
H        11.54323748575012   -2.94890003601728    1.17257754364941
H        11.43784678810223   -4.65520403982343    1.66437661497146
H        12.90707473748970   -3.71241503581021    2.03286208648139
H        15.08118423884735   -2.77780306211142    4.96095946879291
H        14.03506965160324   -2.65496939234700    6.40419940817787
H        14.15568007222765   -1.28732293452690    5.28368783202329

