57
CSD_code = VEZFEN | q = 0 | S = 0 | Stoichiometry = C28H21Cl2NO3PRe | MND = 6
Re        3.63262303823730    4.72708522410881    6.27952298296930
O         5.16883692536242    5.02881748605819    5.73088788602314
O         1.65114615992384    4.22686941639184    6.27852494116129
O        -0.06186123810042    3.08538429927491    5.45639865701121
N         3.36472112816957    3.23056560849426    4.73789096251518
P         2.49749828617213    6.56099704257335    5.07900341355397
Cl        3.44740438315199    6.11646876465856    8.06230280747192
Cl        3.89948313871531    2.96940216333813    7.72232795586505
C         3.63941642290409    7.73550976217449    4.30033505621342
C         4.87019245691830    7.97442985489364    4.90303858787766
H         5.13761786282490    7.42733267622268    5.79845404640241
C         5.74138079222639    8.89291830055418    4.34463016786080
H         6.69739944936530    9.07776356816930    4.81003230777461
C         5.38908635748556    9.57042208123576    3.18806380358995
H         6.07122140647125   10.28471626232709    2.75165576064870
C         4.16340660667661    9.33157135341368    2.58634633789189
H         3.89040053154508    9.85954934528378    1.68457546544429
C         3.28498095788764    8.41763739078661    3.13941754590470
H         2.32594136451097    8.23025916761266    2.67578338050516
C         1.34977319060953    7.57889235028700    6.04359860457907
C         1.44074597031947    8.96782185764933    6.01492548585751
H         2.19875710432941    9.45063566904946    5.41561886830584
C         0.56284088749065    9.73096843994111    6.76353253344472
H         0.63840897617465   10.80801493700071    6.73966501443253
C        -0.40143416294465    9.11955058964658    7.54711282175785
H        -1.08067773471018    9.71966876643399    8.13405415708096
C        -0.48557325743834    7.73712774399340    7.58762309757705
H        -1.22760477725477    7.25684457328288    8.20759268979006
C         0.38663093493975    6.96505756651769    6.84370121942582
H         0.33345612623650    5.88755923561098    6.89958758722074
C         1.55900884892927    5.85057079759372    3.69965480433992
C         0.17361988632515    5.74486053871278    3.69903481615149
H        -0.40472242955554    6.20263664148641    4.48835513636118
C        -0.46055469363671    5.03863422291243    2.69093722661552
H        -1.53558142558227    4.94552365145987    2.70105248489059
C         0.27916848362461    4.43828295093247    1.68668267522146
H        -0.21889751998348    3.87364799377042    0.91294553579684
C         1.66134931723986    4.55747204541045    1.67349857330345
H         2.23816097066370    4.09276149240445    0.88723234359475
C         2.30088876052417    5.25589430760343    2.67808384520030
H         3.38058593096513    5.34281194269195    2.69347244446586
C         2.15408974755478    2.73343646312735    4.57038324598899
C         1.11861836016004    3.36122050369912    5.49879511893084
C         1.86335593434312    1.75559696338677    3.58867323913975
C         0.57359488399136    1.23026485011828    3.36564971312000
H        -0.23920019010879    1.58430313976818    3.97790411060922
C         0.37465184753168    0.29364942455054    2.38820357557869
H        -0.61398835037148   -0.10604385492732    2.22020525139274
C         1.44154230624963   -0.16246797158375    1.59861664731892
H         1.25855896951757   -0.90559824253394    0.83670911333819
C         2.70435627033523    0.32659109922071    1.79332255676347
H         3.53295310134646   -0.02011235829128    1.19350279976182
C         2.94575530894170    1.29401548547007    2.78685597701229
C         4.22708275582672    1.83470656169741    3.02814272201837
H         5.07082863399549    1.49538868307399    2.44775453094589
C         4.39335831986067    2.78419211953907    3.99216433858787
H         5.35209668307328    3.23311905160019    4.21266302693704

