22
CSD_code = VICLIC | q = 0 | S = 0 | Stoichiometry = C10H10ClTc | MND = 11
Tc        2.28350004822472    3.47610567627901    3.79793340281284
Cl        2.28349995983473    3.33607916626596    1.48749193681527
C         2.28350031338171    0.95775804710626    3.38252350091803
C         1.13457981798567    1.34928127214199    4.10631787337307
C         1.57062716557108    1.95691223162364    5.31314416876715
C         2.28349977265927    5.12826123075468    5.41241569744977
C         1.13022400422342    5.38959801830510    4.62224098745299
C         1.56383964153683    5.73414866193631    3.33630070441972
H         2.28350033960621    0.43148828598463    2.44080896765842
H         0.11703711624471    1.11699330473055    3.84402236883823
H         0.93951917713826    2.18865378157081    6.15713946177528
H         2.28349951448753    4.97737377777762    6.48101435464136
H         0.11204016486426    5.37834222932127    4.97100064395076
H         0.94675132603578    6.06474111859302    2.51618970539995
C         3.43242079403321    1.34928058280792    4.10631816846174
C         2.99637346684630    1.95691182775204    5.31314430678299
C         3.43677547565912    5.38959737107562    4.62224060801035
C         3.00315952715726    5.73414832941563    3.33630044359902
H         4.44996356344265    1.11699165141077    3.84402308161936
H         3.62748152392050    2.18865280407689    6.15713979077011
H         4.45495923955878    5.37834045577361    4.97100035385293
H         3.62024804758806    6.06474017529667    2.51618947263061

