34
CSD_code = VICTUW | q = 0 | S = 0 | Stoichiometry = C9H16I3O3P2Re | MND = 6
Re        4.11317166214687    0.19091292955963    2.00297332157778
I         1.34792749756176    0.62791620541309    2.05021941331666
I         0.24724217908685   -2.71832023947653    2.22479719208581
I        -0.56959648614147   -5.27951712683175    2.35133281854025
C         6.03100600534376   -0.08196621622205    1.93243787570479
C         4.20204688981804    0.95553927704633    3.80322400381279
C         3.83691062316917   -1.62950057411146    2.66550633233269
C         2.30446974108464   -1.10303561032917   -0.99368151596698
C         5.04579052553260   -1.78342146286685   -0.93900127840272
P         3.89034704234493   -0.51322910895523   -0.32547807886620
C         4.27998024976751    0.93276177947418   -1.40942415167398
C         3.71480632596300    2.20925254646183   -0.79380397365760
P         4.31079653747238    2.37786579874876    0.94231646346113
C         3.39131800193359    3.82484009767114    1.54539619037104
C         5.99355395021668    3.05809855343218    0.74063769007634
O         7.16769298908809   -0.23612364315327    1.87010534317356
O         4.23186479121413    1.44229940021424    4.83581605293798
O         3.68733388056768   -2.70608139244083    3.01756834181003
H         1.54958622589902   -0.32044036312961   -0.92721099895080
H         1.96755962813627   -1.95116818680803   -0.39618265465000
H         2.43990434219409   -1.40957140595110   -2.03153768741590
H         6.06553176730724   -1.52084355447428   -0.65823905736903
H         4.96801921694527   -1.87236317260047   -2.02292908286748
H         4.79009574760287   -2.73557503848296   -0.47279965348208
H         3.87342373252081    0.75379049046832   -2.40994405444228
H         5.37123822278441    0.99923749641020   -1.48286612496208
H         4.00339469290429    3.09788134185022   -1.36472420247105
H         2.62070313397229    2.16213001546191   -0.75096965153982
H         2.33158649901191    3.58169821466580    1.62024278782799
H         3.53838133878736    4.66461355153391    0.86530467750624
H         3.76344966852293    4.08233186527193    2.53786498782242
H         6.64359241766699    2.32502552800331    0.26392635811618
H         6.39291787327028    3.27872092727283    1.73092956987908
H         5.96045308631894    3.97124107680946    0.14579274641202

