31
CSD_code = VIWJUH | q = 0 | S = 0 | Stoichiometry = C10H12Cl2N4O2Zn | MND = 5
C         7.15230211717441    5.93943313388768   13.49441689623542
H         8.03329876904277    5.30080078453323   13.44160086739252
H         6.94663933678323    6.39105526938718   12.52874973591767
H         6.31146261169066    5.31198593961957   13.79139165313757
C         7.36776452034937    6.99834084196075   14.51489023319475
C         7.03594290308664    8.39734479279176   14.14426977953579
C         7.39238638598393   11.61158665792595   15.49773308456346
C         8.01681399226196   11.58831813983858   16.85801300829898
H         8.34214777488638   10.58747984413463   17.13068514272571
H         7.30330732497380   11.93486440317807   17.60541823122855
H         8.88357893950573   12.24520898415423   16.87524447246339
C         7.15605722181258   12.89542931309496   14.82566224266194
C         7.23556745372317   14.12298936587756   15.48123252957102
H         7.45760613539150   14.17228223212603   16.53488863582492
C         7.01318094148759   15.28398767792500   14.75852890509284
H         7.07115550473817   16.24587915387385   15.24594475024035
C         6.71590026205040   15.19117014611441   13.40880150661094
H         6.53642196071612   16.07125542677469   12.81302719450013
C         6.65796403168999   13.92953787637869   12.83178454664654
H         6.42836048437884   13.78697340268807   11.78459354788127
N         6.87516073828565   12.82597477423008   13.52076999914216
N         7.05636431253617   10.59516604954627   14.80413275893379
N         7.22771715425598    9.31726823184188   15.13339920853151
N         7.82842830152795    6.82596243804302   15.69326911156466
O         6.61294292765968    8.70609133031071   13.04469568631531
O         8.13556027424490    5.52628043326117   16.03622658262820
Cl        9.34702282727978   10.47591764391867   12.88988256820737
Cl        6.07732519659252   11.27078043833939   10.70504064157659
Zn        7.14755725845649   10.84897590208166   12.56264021156148
H         8.50816922882814    5.57982685746081   16.92874633186060
H         7.70309310861362    9.01123251470796   15.98131993594962

