70
CSD_code = VIZPIG | q = 0 | S = 0 | Stoichiometry = C34H29Br3OP2Pd | MND = 4
Pd        8.98604183939245   13.20872809934623   11.24812121847523
Br       10.82777452076026   13.63337162931972    9.75310909329721
Br        7.46317625946608   14.01490404910385    9.51373588749159
Br        8.09978799151160    9.65792166080703    7.30050950366108
P        10.55702648268284   13.15178440928476   12.92915785073824
P         7.25051057756414   12.96498557300710   13.94624630551181
O         8.76661691289883   11.29223740722395   13.56172223290708
C         7.30210433339543   12.39472038530105   12.26317236013044
H         6.40465338272984   12.41892738298651   11.64831109210285
C         8.25724494260115   11.34636618112815   12.38815450203751
C         8.64416835226664   10.36509347533535   11.35887597434555
C         8.22555152819927   10.47079219131871   10.02597642518960
H         7.53171390965953   11.23899440897156    9.69858712961066
C         8.68439917206088    9.54339357192807    9.10699538153722
C         9.54535833057484    8.51915899350104    9.47513055590859
H         9.89590552538647    7.81830217230089    8.73340602436304
C         9.93565725082566    8.40781970315024   10.79823851850291
H        10.59579854258991    7.60775204578997   11.09653416573596
C         9.48809995558257    9.31768052021646   11.73681053063567
H         9.78549815010840    9.24742469887398   12.77226918206629
C         6.60377721743583   11.74191680932628   15.10579216101382
C         7.19567131291645   11.46426889903735   16.32938674413048
H         8.08665127715732   11.99131918214679   16.63596677086905
C         6.63999966944004   10.49985026668770   17.15152844858677
H         7.09775640593192   10.27999899285237   18.10475395168070
C         5.50351063757988    9.81392419478034   16.75486534845495
H         5.07673172479542    9.06073942405348   17.40000996217768
C         4.91469075022373   10.09016159246203   15.53094354035474
H         4.02936157576009    9.55523884492731   15.22119302467561
C         5.46366028405687   11.05304697338751   14.70500089803956
H         5.01200512573628   11.28394119780426   13.74849633403668
C         5.98515722542116   14.27481647125308   13.88055181251985
C         4.93310376741620   14.37264372452400   14.78128296596755
H         4.82988110258730   13.63944990508240   15.56975888472981
C         4.01660839895756   15.40291519031727   14.66105971420361
H         3.19669403240200   15.47382979946764   15.36049205141249
C         4.14617537293544   16.33639970569183   13.64589458752584
H         3.42283462244638   17.13217947838117   13.55128733377660
C         5.20078454599471   16.25012424442895   12.75059997513527
H         5.30307786982218   16.97222071252388   11.95521704369386
C         6.12034415115490   15.22667682666965   12.87243761227360
H         6.94594237278650   15.15491366949491   12.16597426430255
C         8.60754553537934   13.96831068446760   14.68012068766637
H         8.61520971025502   14.90493693389191   14.10182330843504
H         8.25339561609651   14.20952973346074   15.69150362066190
C         9.99473872619305   13.35183888618060   14.69210896357214
H         9.98764318046377   12.37962663994965   15.18317082340374
H        10.69204945387305   14.02692000064824   15.20143983647370
C        11.45573877580693   14.73819088507833   12.79133556581579
C        10.71694241246218   15.82657631722978   12.33035144205134
H         9.68045816586529   15.68227578989231   11.99843150121973
C        11.29990100489528   17.07495043956783   12.23631388465142
H        10.72693421889164   17.91280262666269   11.86831656657936
C        12.62863592321970   17.24122461675346   12.59471161524753
H        13.09088587101647   18.21314134949271   12.50937877718535
C        13.36914694802554   16.16029101359779   13.04181775882861
H        14.40920272505965   16.28844569331854   13.30344236052599
C        12.78651942678767   14.90877656198803   13.14533893163079
H        13.36994595000351   14.06174308338122   13.47825935832001
C        11.81780153331601   11.85656689294648   13.02133659561702
C        12.54924243537918   11.62668011593216   14.18413146619018
H        12.38430566790675   12.23155335346895   15.06411996649653
C        13.49685804987443   10.62044463758037   14.21317720933849
H        14.06529574699284   10.44730163166050   15.11565842558706
C        13.71977694607384    9.83616977259868   13.09227861061809
H        14.46111235934032    9.05150504779658   13.12329484422726
C        12.99244978875195   10.06002406536370   11.93600609432662
H        13.16207861344683    9.45320591166616   11.05927680815261
C        12.04339632898014   11.06550011052303   11.89965402819280
H        11.47918148243324   11.23843254070227   10.99144358517808

