53
CSD_code = VUJHUF | q = 0 | S = 0 | Stoichiometry = C26H20Cl2N2O2Zn | MND = 4
C         2.92776382661951    3.31448476449711    8.53279222547192
C         2.75191697484001    4.25357045634615    9.63938407508569
C         1.68877754745238    4.66546992939982   10.40984310849179
H         0.70763266662233    4.22898494333715   10.30534340647759
C         1.89114825585144    5.69424464943490   11.34622762975729
H         1.05178840058806    6.00246082343357   11.95203871535348
C         3.10240394679512    6.32076062448810   11.51053737465420
H         3.21463350572802    7.10946638100978   12.23966629696065
C         4.20572558410256    5.95482378596475   10.70881658908731
C         3.99358609672333    4.91429658459909    9.79708355428714
C         5.48811531204450    6.54631949898087   10.69819783439136
H         5.70973876152907    7.34575859077523   11.38964620897444
C         6.43595931014795    6.12313024381958    9.79891272475878
H         7.40368417924759    6.60265803075832    9.78781527502218
C         6.20073985091130    5.08810899353958    8.87693197601440
H         6.97523131021555    4.81702483670041    8.17656998791074
C         4.97690323143557    4.45886959574464    8.88632659597133
C         4.32894544823567    3.43891506861066    8.06338627083154
C         0.86105832157039    2.16180659808508    8.30666565571718
C        -0.12920301686607    2.00905753686309    7.32806809496785
H         0.10469859701705    2.25937769126204    6.30312286270271
C        -1.38616509882477    1.58127259152129    7.67399510021666
H        -2.16249847810862    1.48016384280137    6.93294790227559
C        -1.68711865003044    1.24110529422239    8.99941303955001
C        -0.68969005923350    1.34537238351037    9.96771565423166
H        -0.87470822901780    1.05492440910560   10.98984856540804
C         0.56365244183584    1.81359125106803    9.62602451694994
H         1.34231472575002    1.85135238872464   10.37400645269156
C        -3.31441871044896    0.42075737101455   10.53006982623935
H        -2.70970630454421   -0.42296851113566   10.87645713118861
H        -4.35645262448735    0.11272767187309   10.46295544478338
H        -3.22758984312372    1.24922945715491   11.24019619747505
C         5.99498563702257    2.59013990114549    6.59249570029632
C         6.19908388807885    2.47440499326714    5.21569108243781
H         5.35444180620125    2.59026145764627    4.55086508681920
C         7.45842566765634    2.25262923288043    4.70173993689336
H         7.58106815010980    2.19037539719076    3.63252015651114
C         8.54719383108632    2.09286515208504    5.55999726073079
C         8.33725340573311    2.15963218858486    6.94274659092548
H         9.17977099378497    1.99556558981749    7.59586699935582
C         7.08775055116913    2.41497125354389    7.45328517501684
H         6.92949430021693    2.41634478012589    8.52151850608739
C        10.09404987293739    1.72483271371025    3.79127973991031
H         9.54281867961316    0.88799217666089    3.35290620558271
H        11.16262309379945    1.52847120922689    3.72350853075469
H         9.85925492408656    2.64339675472357    3.24506971762264
N         2.12803655593520    2.52744167749105    7.91080434767991
N         4.70853406787029    2.74566230670808    7.05234455622927
O        -2.95072680756169    0.81561221632881    9.22795432993656
O         9.81971407549653    1.85816532456286    5.16729634733411
Cl        3.14951858094651   -0.22181685450835    5.77758067068737
Cl        2.41112466495626    3.54218855909627    4.61305369675892
Zn        2.99801678028270    1.94214619220173    6.04256906849108

