62
CSD_code = VUMGAN | q = 0 | S = 0 | Stoichiometry = C31H25CuIN2OP | MND = 4
I        -0.72318089978055    0.78134770771323    3.30473415636505
Cu        0.93008727383120   -0.98766546044681    3.90270056253772
P         2.76767331307990   -0.92075778709104    2.53099275117173
O         2.23589868115423    1.54656742696569    1.50672521097546
H         1.35445133933878    1.61390318839017    1.91679416307710
N         1.85965068986940   -1.24867579377998    5.64392491767751
N         0.19589006336795   -2.80987379383777    4.31441849903421
C        -1.53876335147362   -4.49354076080167    4.31792546778963
C         4.88889414290163    0.89739922463215    2.96537821060066
H         4.33584738016154    1.61417087367833    2.37760888116620
C         5.08570939045752   -1.28971180313453    3.95376769051666
H         4.68206822880916   -2.28348747271660    4.11022029975213
C         6.09363996932008    1.25377065068444    3.54462593480362
H         6.48580166923285    2.24837736541031    3.39046024235061
C        -0.85507721330909   -3.40772857457056    3.70791650388232
C         6.28529364244303   -0.92515573652057    4.53059844306387
H         6.82586295247180   -1.63177534288315    5.14376607521648
C         4.71735807907316   -3.63838380927574    0.16314843066273
H         5.63738794265426   -3.69212526168799   -0.40040714644326
C        -3.02323359309732   -4.61334840969385    2.42402579951498
H        -3.86542789523946   -5.06121858485224    1.91832374084073
C         2.61233397192292   -3.05317148874664    7.02262756604089
H         2.49272703868066   -4.08025417285431    7.33001467031023
C         6.79248432195769    0.34823678368971    4.32449735306552
H         7.73039948126066    0.63386954885841    4.77733295995343
C         4.87864182472489    1.19090676059388    7.07975384411460
H         5.66035893003289    1.84413789102326    7.43748890092663
C        -2.62919392125672   -5.07841971653647    3.65009443637555
H        -3.15010166207844   -5.89635383381840    4.12695439488447
C         3.22868537196860   -2.42060990352058    1.60012167590453
C        -1.08007562840275   -4.93214933509129    5.58060666055068
H        -1.58612073593907   -5.75140240273172    6.07085405248253
C         4.79730276139675   -0.09760153946470    7.53577567301787
H         5.50978151876120   -0.47784296719719    8.25392537589227
C         2.84913684438380   -0.46433617103029    6.12140554360785
C         3.78237426115371   -0.95316455948690    7.07424403223004
C         3.84923818894611   -4.71958871601632    0.17675047386019
H         4.09417041020635   -5.61418544500133   -0.37634009902779
C         2.95051666410340    0.86757350081346    5.67772813515187
H         2.22582604961925    1.23304978371381    4.96462764196280
C         4.41163467600472   -2.49052876679814    0.86918662328602
H         5.09308904014942   -1.65089650535055    0.86651335999720
C         4.38791446067110   -0.38619456612093    3.15310096900739
C        -2.33923350319875   -3.55123948091535    1.81656879160825
H        -2.66216060832236   -3.19332439922028    0.85102031478854
C         2.36478889283200   -3.50928996965460    1.61577156067908
H         1.45267270561181   -3.45460288861854    2.19396957612921
C         3.63654551139318   -2.29064880670524    7.50730597980169
H         4.33998007237560   -2.69408362914403    8.22173350522164
C         2.67231374399229   -4.65454751044427    0.90303312007225
H         1.99600559461147   -5.49691136079870    0.91990448784484
C         2.45681130769118    0.23645437896560    1.09058164674822
H         3.33775389244889    0.23872306938982    0.43708599458902
H         1.60265711223836   -0.17303105084886    0.52761109406418
C         1.72258414085714   -2.49464895289001    6.08163706419926
C        -0.01277695851408   -4.31364663930628    6.16528789329585
H         0.33858151870061   -4.61687154182600    7.13876102601764
C        -1.27372603954995   -2.96099450952770    2.44011821689191
H        -0.74916226284100   -2.13608358785600    1.98200093769370
C         3.94815696298800    1.67573995651826    6.15086705943842
H         4.02077711811958    2.69670654668143    5.80884035581909
C         0.61017512533895   -3.23596164878994    5.50188829670768

