56
CSD_code = VUTFOH | q = 0 | S = 0 | Stoichiometry = C30H18Cl2MnN5 | MND = 4
Mn       10.87037718729134   23.62205178871041    2.38801852768834
Cl        9.07397511764543   23.64963536731164    3.41214609838898
N        12.79332145763032   21.57983000363670    6.21992610360734
C        12.12427005586631   21.27639561487454    3.95999473849706
N        13.51771884466313   19.10329878597712    5.41349965791767
N        11.48469337160132   21.87754293314039    2.92446251615827
C        13.46366269239622   22.24479782746507    7.17177403813487
N        11.27045531870569   19.64935929491354    2.66020703034587
N        10.10600333606503   22.55104915097265    0.87525721190250
C        12.55967784845778   18.81015710545228    4.56767731787125
C        11.99737300031165   19.88530179520752    3.77420184545661
C        14.15996080140803   23.92849895782161    5.57885322938677
H        14.68796864804804   24.84159904383309    5.33818946528739
C        12.81572184212604   22.02882376460262    4.99017559676788
C        10.22459549849086   21.21974291507297    1.01607138588820
C        10.97801528456142   20.84281893652791    2.17076420545659
C         9.41327856947063   23.04268090473282   -0.18517684512241
C        13.58742545302721   16.78125888470134    6.10191855059728
C        12.06402560412885   17.49246724631567    4.39186716627288
H        11.29122301655279   17.32681792474300    3.65902584248963
C        14.17546255975367   23.44888991488254    6.90639746967897
C        14.02780729721372   18.13194737398775    6.18587528011271
C        12.58130802417135   16.48730313941678    5.15455026279081
H        12.23265752995815   15.46800616362486    5.05295034521682
C        14.84426777844487   23.55667003310895    9.21642419216682
H        15.37265331702564   24.04804283308377   10.02036327569486
C        13.49372615332314   23.22055781214936    4.62153504019447
H        13.50237117269868   23.52008979610477    3.57757634722575
C         8.84389507220831   22.17533685915400   -1.15828315129750
C         8.99473158314935   20.77884042868999   -0.98496600740580
H         8.55937879741797   20.10925059189326   -1.71157050900895
C         9.67603134264680   20.30415367184936    0.09522292045291
H         9.81622163121833   19.25362866468308    0.28821229637844
C         9.24243805662303   24.43249841722878   -0.33100499693154
H         9.66093672662475   25.08608159476204    0.42513670789496
C         8.14723328625997   22.73397623618639   -2.24511780317762
H         7.72362176253824   22.06718160220495   -2.98144393869405
C         8.00483127606182   24.09039381198003   -2.36564566408744
H         7.46703014959879   24.51001343071549   -3.20180435944288
C        14.14737581709235   22.36534692392699    9.47821541627636
H        14.15488591637271   21.96192682632445   10.48034096782260
C        13.46618216991834   21.72259816490025    8.48331098412319
H        12.92808543783249   20.80421663561788    8.65787846985959
C        15.02967879194659   18.47021254125458    7.12079139832627
H        15.34124312541781   19.50181346622464    7.17336585628835
C        14.85895686343036   24.08941594644867    7.95717417290457
H        15.39763729491077   25.00372306345049    7.74897486995180
C        15.56322883993084   17.51101541540971    7.93496475711485
H        16.32534386098449   17.77148364531649    8.65522540063396
C        15.13064553060011   16.17750766498942    7.84938658730318
H        15.56852293242264   15.43623142736291    8.50206297447039
C        14.16324269083240   15.81842467512081    6.95138686354543
H        13.82473578564076   14.79359707325229    6.88301624875312
C         8.55062613682749   24.94281066169932   -1.39664244276513
H         8.42098460716382   26.00993965490939   -1.49457215575137
Cl       11.80857773332484   25.28694559204287    2.21715824043426

