24
CSD_code = VUVHOL | q = 0 | S = 0 | Stoichiometry = C9H10Cl2N2Pd | MND = 4
Pd        1.32065652448235   13.54263906711344    5.78894916147306
Cl        2.78365496674095   15.05786963449602    5.13333546308622
Cl        1.52602647263740   14.28243915186529    7.86660743204255
N         0.96833606149763   12.84363806908838    3.91393747660906
C         1.45532606548260   13.28023544240292    2.75519969199130
H         2.17519371102043   14.08873688406317    2.82084918106189
C         1.07168673146440   12.73717648116272    1.54186930323605
H         1.49042000146841   13.12016409667132    0.62571438405515
C         0.14536928644661   11.69753702479711    1.52431956024964
H        -0.16925466359249   11.25786023472085    0.59047698672208
C        -0.36308850236717   11.23941772269475    2.72225306162237
H        -1.08337367004870   10.43712919585261    2.75711360403952
C         0.06509867010483   11.83301022000054    3.91387595233793
C        -0.37845526646343   11.43183482858710    5.21872781708180
H        -1.04973905251713   10.58337980003155    5.32840611474142
N         0.05818728427745   12.09942499771713    6.23711618330525
C        -0.26062819803620   11.70542676149690    7.56589800900528
H        -0.86208859002275   12.45191795463681    8.07548267189421
C        -0.38957526746552   10.26363801627394    7.96136668725776
H        -0.25777109245837    9.50201890645967    7.20760103867927
H        -1.11919196519608   10.00769452423880    8.71379573163768
C         0.82282195960885   11.04626645943165    8.37366825606860
H         0.94096322651284   11.35130391453904    9.40023464983576
H         1.75722530642408   10.84724061166017    7.86410158196456

