14
CSD_code = VUWMAB | q = 0 | S = 0 | Stoichiometry = C5H5AuClNS | MND = 2
Au        5.58255713700194    3.70027240877913    1.52897432589549
Cl        3.99015975423740    2.52384600136943    0.43319913826243
S         7.21919257430806    5.19227546471798    2.31658214851882
N         6.48975188562533    6.20554700340093   -0.02638189094735
C         7.28089553783294    6.32482004912175    1.07094592804085
C         8.15200002551975    7.43735682866974    1.11627230849487
C         8.17626255652909    8.33619724247616    0.08854893504741
C         7.33100649094106    8.16016188194391   -1.02663769521349
C         6.49883903398450    7.08038924863050   -1.04960528285625
H         5.86742361863965    5.38302805026161   -0.02536687528974
H         8.78370816085307    7.54178801959019    1.98276225158433
H         8.84128285579760    9.18488922859237    0.12381354217911
H         7.34071291425901    8.86183758505468   -1.84280146852303
H         5.82190745447254    6.87349098739268   -1.86410536518791

