43
CSD_code = WAFCUE | q = 0 | S = 0 | Stoichiometry = C18H16ClN2O3ReS2 | MND = 6
Re        2.27370718649072    7.09253687640359   15.09854829094174
S         1.89434090776896    6.72121995087485   19.74422845949791
S         2.93928007798715    5.93850599896336   10.67271296746157
O         2.63918488513589    8.69194801208653   14.87999906609376
O         1.82727936982928    5.33503614457858   15.41051396149488
O         4.26957897939064    6.39039195048370   15.20325174728457
N         2.23670394182154    7.19997062247335   17.23584486570516
N         2.29196072107243    6.68200121366236   13.04840256850132
C         2.47060316865317    8.40026498820096   19.33236664668440
H         1.63821819845252    9.08333416545469   19.50207481417227
H         3.29677232441334    8.66103003365904   19.98891054732006
C         2.87528566491741    8.33561143949737   17.86008700299650
H         2.58020421302952    9.23890129357105   17.31890854014917
H         3.95741129036586    8.20863972553621   17.73770362711493
C         1.76000991990683    6.31541422693697   18.03995063756080
C         1.19313080316260    5.04276487203090   17.66749447515834
C         1.28109617807320    4.58789185916092   16.32158108378025
C         0.77378963746522    3.31708321128746   16.00798924896105
H         0.84911714661545    2.97996945616491   14.98482301180338
C         0.18176837354267    2.53507918955592   16.97265847619851
H        -0.21289396002733    1.56595740898434   16.70634110915983
C         0.08590829807525    2.98554034039817   18.28559522902065
H        -0.38255047877024    2.36978842694571   19.03704235947728
C         0.59073488856164    4.22074142801646   18.62332631466779
H         0.52202177178571    4.57818875133958   19.64080543135192
C         1.19390333512142    6.40105433001493   10.90000038869008
H         0.88954271413508    7.04795577713298   10.08154743267467
H         0.60321220137242    5.48466604129101   10.87878520306315
C         1.14938789168806    7.09437128103987   12.25485294821244
H         1.20550963326117    8.18581689568318   12.15470363205232
H         0.23126536297961    6.85921666441901   12.79947547866379
C         3.27884352849484    6.16331381862699   12.38432127584099
C         4.56942384910282    5.78025214341820   12.87189054399924
C         4.97618799792009    5.92855122315509   14.23521023652313
C         6.29355397599356    5.51118007002951   14.56511439905854
H         6.58803182591448    5.62752496850072   15.59708121370745
C         7.15519483086953    4.99632797063013   13.63842925461841
H         8.14946414623542    4.69609843169437   13.93482906848540
C         6.75214311254978    4.85586287409558   12.30749821387375
H         7.42885265123926    4.44965895035982   11.57267586488171
C         5.48891870637592    5.23889472779593   11.94962544571029
H         5.17466204048636    5.13181561852484   10.92084560370610
Cl       -0.04466131145870    7.52282662732046   15.23245331367998

