34
CSD_code = WAHHOD | q = 0 | S = 0 | Stoichiometry = C12H14Cl2N3O2Re | MND = 6
Re       13.92215452674012    8.25263756146834    9.82153688434778
Cl       15.17684811837764    9.60653428952673   11.21897079303712
Cl       12.40968959038536    9.97487269087699    9.50287964472690
O        13.05886363937938    7.52575037470000   11.03034284426491
O        14.87533583981690    8.73782684646816    8.43076513314477
N        15.40305991697409    6.46321225827098   10.00416864833264
N        13.84646048802410    4.85040629719314    9.19281972676229
H        13.68349752636228    3.85167553887833    9.23087775154109
N        12.80339629152277    6.82536075587902    8.36068544592680
C        16.57053549669041    6.71470718588354   10.59236048036704
H        16.81204438462108    7.76251152449861   10.71446164989336
C        17.41298544469692    5.72496447684879   11.05284014992701
H        18.34743661081881    5.98091184288361   11.52250519198551
C        17.00943937045639    4.40193832432476   10.91280504904499
H        17.62465244189395    3.59306784673382   11.27652516046203
C        15.80583748695164    4.13782487411534   10.30032450809898
H        15.46439825066493    3.12130516913067   10.17371089333904
C        15.01198884357126    5.20283900135082    9.83768859526576
C        12.86419127803633    5.50198321157596    8.47985577537245
C        11.91759817416840    4.67986566943082    7.84202170217511
H        11.97013627611635    3.60839593191559    7.96485342814874
C        10.93149734866603    5.24948972199855    7.06964599837838
H        10.19661986040433    4.62903989493102    6.57971351045935
C        10.90223273777557    6.63288886116339    6.93480374371165
H        10.15173649786093    7.12371351201260    6.33881899556132
C        11.85167174121579    7.37254253955133    7.60743115046151
H        11.84919366467031    8.45438274764523    7.57760053740802
C        15.59644273911691    9.33404610000215    7.43638269580884
H        15.67492912513234    8.64533944806189    6.57545942785271
H        16.61637482993813    9.52919805826043    7.80997490763371
C        14.95032088344419   10.65203020591399    7.00254786885622
H        15.56779882900359   11.14030643033637    6.25378590845055
H        14.84373584957525   11.30178390525934    7.86807031486563
H        13.95979589692856   10.46704690291097    6.59296548438615

