45
CSD_code = WAJVIO | q = 0 | S = 0 | Stoichiometry = C21H21AsAuCl | MND = 2
C         2.46421258879652    0.49358156549091    2.85355306483542
C         1.12634205570149    0.08108973630859    2.84078071146154
C         0.51254118964232   -0.23947620566208    4.04410116051281
H        -0.52056520922501   -0.55706236081855    4.04256524344208
C         1.20396097484642   -0.16186166020219    5.24120048786056
H         0.70815337122152   -0.41600205033094    6.16611245396753
C         2.52833054434933    0.23974864989979    5.25146797348881
H         3.07289854474424    0.30209098211331    6.18211026676994
C         3.15372004984443    0.56233049915887    4.05981952606808
H         4.19428333124455    0.87617890738409    4.06223469808270
C         0.38034733854553   -0.01833339963466    1.54469120350353
H        -0.68534617880846   -0.15031015395721    1.71628739482360
H         0.74679938838786   -0.87311228850774    0.96455546177705
H         0.53240153010117    0.88298811847322    0.94005169062215
C         5.18100875361950    1.21892380522716    1.73756374036797
C         6.02611373146461    0.13564654845424    2.00604770468010
C         7.34266639805679    0.38671749413754    2.36819675127706
H         8.00110438633287   -0.44438578151776    2.57774669249400
C         7.82259600000602    1.68209445748199    2.46191032503566
H         8.84971586650880    1.85578002006326    2.74603635739876
C         6.98696308486109    2.75181798250077    2.19201359035240
H         7.35534779241137    3.76448965997974    2.26490080079274
C         5.67261630886074    2.51708968313626    1.82787253278708
H         5.01261558261646    3.35334625918445    1.61229510713925
C         5.51119206258227   -1.26753219809500    1.89512047683881
H         5.35602616695509   -1.52959681560326    0.84225582194788
H         4.54765494544669   -1.36736717867341    2.40778985414942
H         6.21351699469758   -1.97678626303629    2.32654278665476
C         2.70926953793633    2.66172639618111    0.74974321447227
C         3.06240015980849    3.24358025209667   -0.47385373057556
C         2.55700546053943    4.49736641920737   -0.79001288420593
H         2.82591871081013    4.95378714731614   -1.73210712227088
C         1.71332202341460    5.16716484727517    0.07990062880955
H         1.33069568909453    6.14133332541470   -0.18556359389406
C         1.36094932384325    4.58839220276427    1.28663149966447
H         0.70354625620364    5.10632727830912    1.96933488188089
C         1.85650763029580    3.33876359342775    1.61549558918618
H         1.58156507835098    2.87849032498250    2.56101723577125
C         3.96440928181008    2.51463619295114   -1.42313644370201
H         4.84120110077076    2.11929802282943   -0.89772165453562
H         4.30070164926947    3.16956130620988   -2.22350149751984
H         3.43377779172564    1.66550040723474   -1.86933616092905
As        3.35777079349770    0.89973000246159    1.19259082250127
Au        3.08637269818345   -0.69440920779429   -0.49404136115110
Cl        2.82206922063031   -2.25073652381671   -2.14776330262588

