59
CSD_code = WALQAD | q = 0 | S = 0 | Stoichiometry = C24H29Cl2N3Pd | MND = 4
Pd       20.01908699447504    2.22362127325844    2.87201566604483
Cl       19.31568773157247    1.89678594844418    5.01701508010945
Cl       21.91729274665986    3.19086931141638    3.58533019285877
C        20.66883454470116    2.66950785126389    1.05358388177118
N        20.08855973272996    3.65154988252853    0.35724209340331
C        20.92116926110518    4.11237380897906   -0.75176611021531
H        21.18581640677190    5.16477138561098   -0.60382828057979
H        20.40034788123308    4.02182220188121   -1.70719080668793
C        22.15078228756140    3.19487484381924   -0.65099467675916
H        22.28940826850004    2.58548011521788   -1.55445832210373
N        21.79718081864737    2.32513342502252    0.46634968235240
C        22.75852977964747    1.35896375486997    0.92582416380372
H        22.35384274446338    0.88222146672921    1.83154135574902
H        22.88937406167317    0.59882125276614    0.14391690586035
C        24.08988188569599    2.04845808741347    1.22378510903234
H        24.84121674415390    1.29639513547717    1.46432321449654
H        23.95027395651076    2.69385118169390    2.09271324056283
C        24.53229146206475    2.88478624906255    0.02518307465075
H        25.46781294279662    3.39458819037780    0.25687131326070
H        24.70688822003513    2.23733039112001   -0.83897698456233
C        23.45649484689758    3.91507520288204   -0.31542591107322
H        23.29162270771359    4.55568240885396    0.55315276832425
H        23.76417366205358    4.53592170887296   -1.15867456425043
C        18.72766646241365    4.03194973701308    0.53054176099535
C        18.36580633628876    4.88082682554602    1.58208191788103
C        17.02587051252177    5.22639085987138    1.72454141484934
H        16.73865245359756    5.89503471639105    2.52266972277996
C        16.06547065465233    4.72275973020591    0.86913552623338
H        15.02783515693462    4.98787743178416    1.00287578559288
C        16.43221340363287    3.86185019116434   -0.14832171248747
H        15.67799990890073    3.44973070790777   -0.80224350513939
C        17.76047888618457    3.50650606081474   -0.33439993150162
C        19.37261545988843    5.38180205652603    2.57105797880328
H        19.05784981064923    6.33408695836089    2.99173842530504
H        20.35962732582347    5.49620687554330    2.12529921756187
H        19.45736495243212    4.66057843981762    3.40596010327304
C        18.12797032794120    2.54868506478200   -1.42919303656436
H        17.26246854280931    1.95497540885738   -1.71293708273326
H        18.92507910338338    1.87926861915259   -1.10903511594775
H        18.46098097866719    3.08449145848993   -2.31882029640952
N        17.16176718456321    1.42493077989715    2.31304325234372
C        18.31822145696900    1.56196946961720    2.41437477442053
C        15.80660210223428    1.44774807369155    2.35435425675018
C        15.19041370345184    2.23749031754030    3.33668586825684
C        13.80523095279836    2.28114186468068    3.34816099337053
H        13.30436010449487    2.88072024017974    4.09358013534407
C        13.06183716799863    1.56823567908193    2.42289832048202
H        11.98358294292412    1.61746972232460    2.44816705217640
C        13.69156664961559    0.78892433031996    1.46752215790694
H        13.10455755255778    0.23070426283844    0.75316620561184
C        15.07421311654821    0.71244953989004    1.41739120129390
C        16.02294357456874    2.99341636303138    4.31518759746762
H        15.39949843977395    3.56101920069429    4.99997976313614
H        16.69543127414086    3.67560894461704    3.79200251357539
H        16.65826996573207    2.31724128659842    4.88938490263547
C        15.78181146596737   -0.14791412814501    0.41743912069167
H        16.10749558997587   -1.07502409909499    0.89065090879825
H        16.66815649605332    0.35444115927805    0.03462602126082
H        15.12322029534559   -0.40037922684462   -0.40979830393785

