62
CSD_code = WAQXOD | q = 0 | S = 0 | Stoichiometry = C30H24BrCuN3O2P | MND = 4
Cu       14.04278060421241    3.59814029047550   -0.62569825724917
Br       14.58904993675110    2.13742201746967   -2.28018832292812
P        11.85764004531974    3.23446325245017   -0.25188762790520
N        14.31336505162094    5.57213016840105   -0.75836546670517
N        15.32509183336729    3.72811553744417    0.84267461378160
N        16.37954224776195   -0.54059553095053    4.26417898623261
O        16.42731870149530   -1.65678365079482    3.78392869455811
O        16.50599769546247   -0.29748918026374    5.45040270153145
C        11.58337946105783    1.44405959664530   -0.13068005530846
C        12.35444085531395    0.79101616494344    0.83033692537668
H        13.02079682273490    1.37167521959127    1.45854839984234
C        12.27386243422727   -0.57935573194380    0.97150251951121
H        12.87690110444659   -1.08264648641807    1.71248317534443
C        11.42683948520777   -1.30612364707992    0.14874131314224
H        11.36983067268986   -2.37932594719770    0.24980734603212
C        10.66237572569072   -0.66002701521968   -0.80794614806759
H        10.00710153245466   -1.22921493688438   -1.45043495381544
C        10.73787135409564    0.71417473785889   -0.95575203161519
H        10.14703039883088    1.21371244317992   -1.71014759245442
C        10.73461645695480    3.80154843939363   -1.55788236862063
C        11.03684420773208    3.40333190210136   -2.86120644938019
H        11.87565355765270    2.74352730107586   -3.04164543088724
C        10.26520751966231    3.85480383545103   -3.91491082778166
H        10.49732433768997    3.53972372355904   -4.92107187301870
C         9.20314105094461    4.71467021374437   -3.67934000277244
H         8.60197197873208    5.06886838077160   -4.50356079032339
C         8.91524001213012    5.12621148168875   -2.38812841541607
H         8.09152249986878    5.80121031842956   -2.20617197672135
C         9.67956447884972    4.67770380792137   -1.32538474274433
H         9.45569549074615    5.00277742441171   -0.31851051425413
C        11.09992798286467    3.85289260371320    1.28372871955863
C        10.04819667247825    3.19773749679698    1.91606026226942
H         9.64541644560543    2.29111492786257    1.48622601735504
C         9.52614082595417    3.71220843740603    3.08844930319767
H         8.70824075351964    3.20528367840819    3.57881677676672
C        10.04836236815719    4.87396619500433    3.63572406842754
H         9.63796681982889    5.26936880569881    4.55284361360207
C        11.09864639050096    5.52674676631782    3.01095696295456
H        11.50748580065845    6.43037996145570    3.43948888312370
C        11.62596125910639    5.01490453901480    1.83972966702795
H        12.45118405535357    5.51248389921259    1.34368146205167
C        13.70050780991875    6.47724638492753   -1.50601101841878
H        12.96259438535019    6.09516071327153   -2.20032596110530
C        13.98839757802879    7.82568672971972   -1.42551551628268
H        13.48389918808447    8.52856949856173   -2.06793931229033
C        14.95422805636067    8.25063825945735   -0.51203112284713
H        15.20414761865450    9.29759372118860   -0.43085191186301
C        15.58051998968670    7.31767022374579    0.28361108926174
H        16.32095754585212    7.60515069624263    1.01390924337731
C        15.23832737367932    5.96555978251404    0.14150768249936
C        15.80819603895035    4.92640878326473    0.94060286288015
H        16.64467451149121    5.15998130448684    1.59502639754540
C        15.67236904159959    2.69199999894886    1.67302631384587
C        15.79210422157127    2.90184038249165    3.05657719497824
H        15.66087270379766    3.89827924859991    3.45302130394249
C        16.02821842117947    1.84460597185292    3.90196591134285
H        16.11812181561456    1.98938355661798    4.96778920099579
C        16.14994058104945    0.55908114736408    3.37919602150508
C        16.03627583144590    0.33542991680116    2.00738443463560
H        16.13406710105729   -0.66920233587786    1.62619258358682
C        15.79733836077639    1.39111532699029    1.16114605728378
H        15.71281489808281    1.22478924768653    0.09862198143155

