67
CSD_code = WAWHEH | q = 0 | S = 0 | Stoichiometry = C24H36Cl2CrP4 | MND = 6
Cr        4.93130738944766    0.05118463431435    0.21160366640481
Cl        6.28218958304651    1.59576328624161    1.27545006310716
P         6.59482498632265   -1.45032079351484    0.00245063138853
P         4.97993294143768   -0.75883948064949    2.41305972189105
C         6.90551073475233   -2.79602317283472   -1.24608922184873
C         3.84358673198952   -2.12622614899705    2.97718643143737
C         7.27120816516095   -2.01088441112697    1.57018451558128
C         6.58033394781498   -1.55471883840901    2.70831283918218
C         7.09131638059853   -1.79956874399833    3.97361608210460
C         8.27701753725052   -2.50132339083180    4.11723253214225
C         8.95747437287201   -2.95782416115671    2.99755685172287
C         8.46862841717581   -2.70599090059620    1.72870824513261
C         6.25540304600131   -2.40060833985104   -2.56793306749459
C         6.31862754029148   -4.11023045444531   -0.73581014551406
C         2.40821558936011   -1.61691525265017    2.89070367162609
C         4.03318542307713   -3.42954924186084    2.21149726872047
H         6.56103538917147   -1.43672714226879    4.84340943303660
H         8.67343023290780   -2.69145455205071    5.10358702282947
H         9.88029981487167   -3.50668364444203    3.11675328393811
H         9.01055292033567   -3.05016227649986    0.85909923095899
H         7.99103230588009   -2.89481879708976   -1.37886024950858
H         4.10879585664985   -2.28701718381130    4.03342529315454
H         6.68717544692972   -1.48318654067687   -2.96867204926121
H         5.18533406427333   -2.24265249352863   -2.42389314456861
H         6.38840632950064   -3.19173892522037   -3.30406006878300
H         6.75232733891705   -4.39344218184979    0.22140353292337
H         6.51184952233777   -4.90728059589438   -1.45229085047399
H         5.24148458846411   -4.00963454860503   -0.61613810034864
H         2.29533229074788   -0.68982741276268    3.45399193100354
H         1.71639210536298   -2.35400773338020    3.29453291529434
H         2.13699075505319   -1.42829771675560    1.85202936078836
H         5.05738768492280   -3.78955473038690    2.29979165627084
H         3.79715680863356   -3.27755317881501    1.15974726215092
H         3.36393509623635   -4.19262470109582    2.60606157163994
Cl        3.28976823354728   -1.38769955343195   -0.52569298943957
P         3.07358980906583    1.47120039996446    0.10125169394269
P         5.27920379666969    0.90979273724666   -1.84433829070881
C         3.06277547456083    3.17624368112204    0.85560203582937
C         2.75606843057809    1.89162632028468   -1.63073341700261
C         6.78105402667879    1.71507446720926   -2.59346445923813
C         3.84347693298436    1.76073745540493   -2.51459690279666
C         3.24052061785585    3.02982646195823    2.36361503022304
C         4.09629867824061    4.11658051307229    0.24847574471727
H         2.05454912883078    3.56475524810457    0.64493892470260
C         1.54895843637698    2.39831426400332   -2.08909277967604
C         8.03338174433859    1.10037609200079   -1.97744090930441
C         6.73783475440267    3.21779415168628   -2.32685523891500
H         6.76504430336892    1.52369166689973   -3.67452650592333
C         3.69322262961387    2.14170986290292   -3.84669522065720
H         2.48471463694685    2.36045315884610    2.77625850057470
H         4.22620147904194    2.62301370335843    2.58940463306908
H         3.15134235638488    3.99741647104095    2.85423488629210
H         3.94656434162239    4.22110472010804   -0.82519893688853
H         4.01598422841429    5.10136277709519    0.70616791993069
H         5.09784706749841    3.73343169042491    0.43345328811600
C         1.41707048968960    2.78290252266754   -3.41302358218765
H         0.71307039701135    2.48596878221033   -1.40858951405216
H         8.10164877351703    0.03312183742679   -2.18792209394270
H         8.92382220284807    1.58515616546085   -2.37433907154139
H         8.02199623397430    1.23893693206485   -0.89517425386616
H         5.83784833432234    3.66810849908908   -2.74139811762206
H         6.75951028245328    3.40058464201413   -1.25416787569053
H         7.60454662021476    3.70081951884056   -2.77569549389653
C         2.48924289578055    2.66104228794461   -4.28538639404374
H         4.52138384081223    2.03345433161202   -4.53287247568485
H         0.47602452685765    3.17637806485629   -3.76768688231149
H         2.38075295769255    2.96545989200844   -5.31615936864360

