25
CSD_code = WEHGOH | q = 0 | S = 0 | Stoichiometry = C10H8FeINO4 | MND = 6
I         3.94224611642210    3.78656917516307    2.78924812292101
Fe        1.60342109402996    4.56255669056359    2.38034728548354
O        -1.22067867766687    5.02991723355710    2.05273032172185
O         0.91478869926107    2.07312334100140    1.06969937159903
O         0.45697903157345    2.91729410065670    4.31357627813164
O         2.34267316356670    6.07032642702036    0.69896379948990
N         1.95409495064996    6.29060368882872    3.33132197536286
C        -0.08555878722119    4.90746365399699    2.15831382445976
C         1.22104480875202    3.04985241950750    1.57202230970576
C         0.96481285152279    3.97494481919218    4.07477710350362
C         1.16484203058238    5.03056429743084    5.18193779986797
H         0.24771376675080    5.11989353761148    5.76988383470977
H         1.94010771315293    4.63319267181962    5.84674979847821
C         1.60577241200694    6.33905897035773    4.62047606618752
C         1.69114020661936    7.51677757912559    5.34820246943357
H         1.40280412117993    7.53065910599044    6.38702890333958
C         2.15693717146531    8.65929387584745    4.71800706846876
H         2.22713680932549    9.59156405254631    5.25635272237590
C         2.54823714126895    8.58642171998430    3.39029927282943
H         2.93812237506381    9.45053436151235    2.87669317146262
C         2.44113402926118    7.37366806992723    2.72616758881377
C         2.93888838333557    7.20292618235757    1.31309364956330
H         2.71166253075346    8.10194949372820    0.72417561762703
H         4.03091262045157    7.08460384099496    1.36445107905888
H         2.94006543789258    5.72654069127910    0.02498056540440

