26
CSD_code = WEJLUS | q = 0 | S = 0 | Stoichiometry = C8H10ClN5NiS | MND = 4
Ni        0.15214007055228    0.80494719524506    3.83273116440752
Cl        0.32179218062694   -0.86636204980914    2.73427269358701
S         0.99927300507650   -0.09178701801239    5.64221975542229
N        -0.63778909090868    1.91922633341289    2.39978139768750
C        -0.93437083948627    1.62789495135071    1.14151242589938
C        -1.49216899854738    2.58533590612790    0.30211705735812
N        -1.75126426639586    3.81632213791461    0.72236651414471
C        -1.46033391767978    4.11010444150109    1.96963513364498
C        -0.89250698098004    3.17699983714823    2.85213693898668
C        -0.53534696083378    3.40487287030277    4.22571111820269
C        -0.71011086660967    4.69206580486149    4.96123193829841
N        -0.01794250886454    2.35772859313934    4.82707781274760
N         0.34943567211818    2.46545857034075    6.10001990312504
C         0.85282124608281    1.35258724499786    6.59496233534643
N         1.26918698863252    1.29024934231490    7.86155906170172
H         1.64982240083730    0.40933690466278    8.17203035988031
C         1.24220287826377    2.39315831919327    8.78579713225295
H        -0.72128555074700    0.61994438278727    0.81015440216589
H        -1.73667415379461    2.36310059222400   -0.72536451409256
H         0.75654193136587    3.23302196831742    8.29617340766949
H         2.25676388561842    2.67791809885490    9.07328139824225
H         0.68426830429479    2.12057622611139    9.68338288506159
H        -1.68407257467307    5.11934475452686    2.28336460176431
H        -1.10812224226469    5.47317720438111    4.32368893107607
H         0.25095798339624    5.00721041079594    5.36657626358064
H        -1.38041759508012    4.53746697730749    5.80657988183770

