53
CSD_code = WELBOF | q = 0 | S = 0 | Stoichiometry = C24H20Br2N4NiO2 | MND = 6
Br       -0.17867833583606   10.25683001507520    6.31698931428449
Ni        0.00007727831143    8.96627114014417    4.22766392824123
C        -1.71007623458306    6.82322564074282    1.64571300629418
H        -1.74508276150267    7.89746353049794    1.54588057162588
O        -3.56990432476274    3.83767748492033    0.65168616681657
H        -4.23086216352366    4.36173042013491    0.18255738066637
C         2.38613780962341    7.76963314953722    3.69185911444016
C         3.76465991015026    7.55610385654549    3.74713732706864
H         4.16801526823974    6.63807467290276    3.34860978294221
N         0.27660627563226    7.06753740528526    2.93524429339710
C        -1.55921104222392    4.06122917763985    1.86588534180011
H        -1.52961211792121    2.98645406317559    1.94997182064400
C         4.58518479079220    8.51895498090944    4.29708090098678
H         5.65215314512353    8.36835039169327    4.35528579738384
C         2.63007607034470    9.83943063319644    4.67243743099440
H         2.16145610277446   10.75283142102607    5.01673695699165
C        -0.63240293525981    6.23807072438774    2.31529925233524
N         1.82757798701207    8.89147842283072    4.19696943545691
C         4.00389357734313    9.69764627020769    4.74348737847218
H         4.59990420603414   10.50017853468335    5.14585244471017
C        -2.68499296293486    6.03671544211106    1.07338613844527
H        -3.50462661878043    6.49733544398189    0.53817340890906
C         1.52716529066941    6.82583538548167    3.01276575397630
H         2.00306104979228    5.97226226614538    2.52421001012616
C        -2.62181675318615    4.64970128499132    1.18242334013174
C        -0.56765119339434    4.84467196936160    2.41331972294338
H         0.24601220559097    4.38499291531614    2.95601320331789
Br        0.17836759336883   10.25680855888496    2.13794869573888
C         1.71024762758536    6.82278643218303    6.80929743834389
H         1.74547469507081    7.89703925401307    6.90892110893310
O         3.56935409819843    3.83702140442264    7.80406951958322
H         4.23046787867251    4.36098023147613    8.27308480328858
C        -2.38590286928826    7.76931866324919    4.76297081133921
C        -3.76439336712997    7.55547969824700    4.70728124811097
H        -4.16764225926751    6.63721002771124    5.10534320357302
N        -0.27643539470673    7.06720455326723    5.51978093429396
C         1.55881308772937    4.06077880738473    6.58969637476989
H         1.52901238354603    2.98599526088006    6.50580249055419
C        -4.58495637138850    8.51822829845274    4.15722362324892
H        -5.65187039711106    8.36734627895548    4.09855508919025
C        -2.62994867332554    9.83911263145334    3.78235183563468
H        -2.16138966319935   10.75270222375946    3.43855552882987
C         0.63239678855441    6.23769739858373    6.13991550925265
N        -1.82739564779096    8.89126102930496    4.25798106447535
C        -4.00377708395741    9.69710705487008    3.71107966924544
H        -4.59998737652500   10.49968040040114    3.30906060759171
C         2.68502756536042    6.03620848898340    7.38175406782704
H         3.50464901488116    6.49676023145122    7.91702929958290
C        -1.52695877802655    6.82547165574947    5.44201938065108
H        -2.00295204319305    5.97197564276731    5.93064821394118
C         2.62156491562463    4.64917705855699    7.27300712472031
C         0.56740285684505    4.84429580765378    6.04212779930465
H        -0.24623210403352    4.38466626437594    5.49935533459669

