63
CSD_code = WENHEF | q = 0 | S = 0 | Stoichiometry = C28H25ClF2N6Pt | MND = 4
Pt       -2.69720016219118    1.01745614559193    6.04186514752178
Cl       -2.03680105798263    1.91545599472456    4.05676116484087
F        -6.20087437757657   -1.25734260366877    9.24785979979833
F        -1.91862294023224   -0.44578494011490   11.04030368098750
N        -1.01148613532590    1.20578443662533    7.06126347784115
N         0.15421047766607    1.68068812769522    6.81603249647607
N         0.88266244855197    1.57059413025032    7.90950343328738
N        -4.57110432995930    0.56959172921560    5.58903459150946
N        -5.30675158292803    0.67386690391197    4.54376531820916
N        -6.48768993020260    0.15530319790936    4.81730245068636
C        -3.26130338674528    0.24739822590559    7.73893148159310
C        -4.56887062392414   -0.23053511438959    7.85418371319333
C        -4.94867911842571   -0.77754303889729    9.07121284857756
C        -4.05617819782507   -0.84513292722841   10.13272255588546
H        -4.36777850707596   -1.27349131576867   11.07113888089407
C        -2.76252497546490   -0.36240587990884    9.98656042541599
C        -2.33990776231771    0.19296758442006    8.78754919174973
C        -1.07346934371830    0.75750739413128    8.36653181342451
C         0.16635915288491    1.00070446374434    8.90864995783237
H         0.55432832570093    0.83565667897895    9.89041413997850
C         2.21964153607797    2.02761048534400    7.95827407621274
C         3.23838110113727    1.14972187575067    8.32657734159604
C         4.53747640112604    1.63775638815279    8.37464962666766
H         5.33483284738552    0.96644290579808    8.65834999653828
C         4.83217150557701    2.95414805020366    8.05860346572652
C         3.79532535544741    3.79755192017518    7.67729767448317
H         4.01770285359538    4.82278142266747    7.42053651268093
C         2.48422777625975    3.35776041852612    7.61534796155209
C         2.96930179916551   -0.28900598752006    8.65110661590735
H         3.85834759341322   -0.88474392454028    8.46035606181207
H         2.15210297624037   -0.68742247811275    8.05367285770487
H         2.71195412354033   -0.40640408578545    9.70398106966767
C         6.23687335259535    3.46888632070164    8.10973298584406
H         6.30099256912921    4.32914611544045    8.77423087617315
H         6.55451077503475    3.79112307249981    7.11906067193937
H         6.92232008538646    2.70299062745955    8.46226155943234
C         1.38180346027189    4.28035796488731    7.20198084255741
H         1.76009135751411    5.29062047013280    7.07429623668999
H         0.58821755437933    4.29807974987372    7.94860796947501
H         0.94333433452541    3.94745520508084    6.26263059646637
C        -5.28000724135117   -0.03978246693335    6.60611272934541
C        -6.52693444808688   -0.30479320242283    6.09128475737631
H        -7.38127433763635   -0.78454337822290    6.51732292838019
C        -7.51735116551952    0.10262494379786    3.85000187164019
C        -7.25042133050102   -0.51289977466852    2.62234557535717
C        -8.27032267700016   -0.57163363760519    1.68826665193053
H        -8.08384241107215   -1.04757703158515    0.73682535308605
C        -9.52624009200519   -0.03298172724868    1.94198912141868
C        -9.75115172984376    0.58581481603762    3.16100571590100
H       -10.71745070496603    1.02262448120802    3.36675428799354
C        -8.75962534209850    0.67078364576543    4.12946360232211
C        -5.90548044606860   -1.09902489484834    2.33062488340520
H        -5.61493723380945   -1.81003855416697    3.10364611963607
H        -5.14989235954332   -0.31574508122595    2.30228587872825
H        -5.91485553884105   -1.61262981015245    1.37353045246397
C       -10.60249159690670   -0.12019870219890    0.90524973709547
H       -11.51682284577382    0.35598343819448    1.24858909067481
H       -10.81786063644699   -1.16200117287905    0.67179777237150
H       -10.27972169273033    0.36535060579296   -0.01436898619162
C        -9.03988871490488    1.37355962086271    5.42382766585220
H        -9.82455139589812    2.11244384162935    5.28212618156335
H        -8.15483769876556    1.87870293382019    5.80453966757557
H        -9.38296569090286    0.66776539717157    6.18063737322670

