43
CSD_code = WEQFAA | q = 0 | S = 0 | Stoichiometry = C14H23IO2P2Pd | MND = 4
I        29.02360025234938   11.21130851788626    3.42880609931843
Pd       29.02364277414344    8.62899139358218    3.42885759838555
P        27.01139828817853    8.29480860128833    2.54762584825154
O        26.84764654933062    6.67455721897664    2.44697253432979
C        29.02357172135291    6.65643370851904    3.42889730105927
C        27.93132246574739    5.95464499603526    2.93735998157014
C        27.92080289850370    4.56862810518701    2.93356802950640
C        29.02360206275765    3.89030819357469    3.42886523539104
C        25.59657526102723    8.77001242266870    3.61196980883937
C        26.04880484738899    8.51845840087603    5.05031144491072
C        26.64733279180811    8.81845318058335    0.83216527716777
C        27.94788332249480    8.63965987751995    0.05083197564526
H        27.06376532955393    4.03836055091425    2.54943505946775
H        29.02362594223904    2.81139148062417    3.42882022089539
H        25.38372914514803    9.82989554999325    3.45468652020862
H        24.71563350613754    8.17756073250701    3.35112024338670
H        25.30239845928260    8.85200031143727    5.76817434951571
H        26.23400502200898    7.45374423466048    5.21072426404174
H        26.98407595499844    9.06825620114773    5.24558073272600
H        25.83761819662475    8.20757197734295    0.42480200944189
H        26.34423044596966    9.86760221897745    0.84406840231724
H        28.23929335243741    7.58741631372230    0.03379549498236
H        27.85019260957485    8.98936039224845   -0.97450704104582
H        28.74941108191674    9.21367414674288    0.53562694217694
P        31.03576345556083    8.29484553482285    4.31007419976376
O        31.19950362104072    6.67459683617305    4.41079022724547
C        30.11583617343046    5.95465906562348    3.92041235145098
C        30.12638525648760    4.56864150546810    3.92418320446486
C        32.45056631648974    8.76999343633927    3.24567106730015
C        31.99821013862817    8.51849846332801    1.80736289072225
C        31.39997078042579    8.81845145302358    6.02552107209737
C        30.09948785778714    8.63963888194963    6.80696768130234
H        30.98344482199916    4.03838320566676    4.30828134899517
H        32.66345932444020    9.82986539119664    3.40296378349259
H        33.33151338977589    8.17750491822878    3.50642669350885
H        32.74458503808629    8.85201284424819    1.08945383013310
H        31.81292479733895    7.45379910087549    1.64693916533828
H        31.06296105344693    9.06836616704959    1.61218371843034
H        32.20971973659589    8.20758087069414    6.43283691583234
H        31.70306204065686    9.86760282264884    6.01361485391637
H        29.80814085884662    7.58738249156850    6.82410380468946
H        30.19721575299770    8.98941905087598    7.83227701371710
H        29.29788730499557    9.21355923320446    6.32217784510873

