40
CSD_code = WEYTUQ | q = 0 | S = 0 | Stoichiometry = C13H21Cl2NRuS2 | MND = 9
Ru        1.70942184960357    5.85244381860023    2.18741610497795
S        -0.08467504627624    4.21070678103233    2.48865463632810
S         0.22452770572739    5.89550449399790    0.23849311747053
Cl        3.36235054946287    5.90745554388740    0.51745772619559
Cl        3.02555312429631    4.06320304328824    2.95810751194862
N        -1.74237804558272    4.07923864700503    0.38562426226833
C         0.51606283878714    7.36267276595563    3.16924920013017
C         1.24355863733153    6.67556214810307    4.20219499352750
C         2.63131515576952    6.99887115275370    4.06546100211846
C         2.77776036534989    7.85290367425631    2.93636663140359
C         1.48215134651785    8.06218613843291    2.36583036549388
C        -0.96714682829637    7.55316226428990    3.11713976088684
H        -1.48754593416877    6.68536975409805    3.51906852457118
H        -1.30493488569029    7.71518121377776    2.09461036795950
H        -1.24188662617985    8.42590405172911    3.71219824446567
C        -0.68297269516936    4.64547364879232    0.95484191747836
C        -2.21250850168278    4.47337033298915   -0.91861331929943
H        -3.21727562460515    4.89516084687965   -0.84287731073177
H        -2.24395333884558    3.60388447114899   -1.57769163110267
H        -1.54109010349063    5.21792378676083   -1.33992251121893
C        -2.48209657343215    3.02181371474785    1.02754230353906
H        -2.51269867326021    2.14548602613006    0.37758314580063
H        -3.50494999178193    3.34874044119952    1.22752362318220
H        -2.00011560719649    2.75539839048459    1.96529837855546
C         0.67341630664845    5.92420720299837    5.35997209703528
H         0.71781260654351    6.54262765909670    6.25840711098346
H         1.25088768235491    5.01747622508255    5.53688863990042
H        -0.36169311966446    5.64446236946321    5.17997025076396
C         3.69667269861187    6.53685692613629    4.99321409402986
H         3.93154219000853    5.48873011357314    4.77837225436074
H         3.35527859442653    6.60037770172637    6.02514995915581
H         4.60657478669012    7.11864438117288    4.87286736525756
C         4.02911597510152    8.47490087134247    2.43011032922685
H         4.82604413930526    8.41794994091760    3.16707901690823
H         3.85375858462945    9.51527087659181    2.16015724817629
H         4.35765723438097    7.94206894609504    1.53089817576632
C         1.20362871570454    9.02369143078665    1.25769650434491
H         1.30770629268909   10.04695578743053    1.62349230694542
H         0.19802059654793    8.89474087098390    0.86498808353151
H         1.91410361881597    8.87402154631755    0.44557951768591

