43
CSD_code = WIHLAB | q = 0 | S = 0 | Stoichiometry = C14H16HgI2N8S2 | MND = 4
Hg       17.98072062790996    8.95162352297836    4.25208208998749
N        15.15296804805968    4.66533913220607    4.73653209339978
H        14.79999628752204    4.48310021404575    3.79551085746018
N        14.85719753722405    3.85452135907637    5.76114676929701
N        16.37004441659045    6.00283096475659    6.14040844753081
H        16.08503861604823    5.37829066692500    6.87969973971211
H        16.92326366095126    6.81942758628531    6.35605440197789
N        13.03258143031233    0.87501936249499    6.26668420021510
C        12.67638281747386    0.00565977465324    7.18958860640032
H        12.06858614631893   -0.81901375381043    6.84103577581955
C        13.04088717009911    0.11455263498853    8.52574135891103
H        12.72218901022403   -0.62421650254396    9.24393139527292
C        13.82203225312247    1.19605470371519    8.90656907745527
H        14.12759242778309    1.31886182502834    9.93541735025906
C        14.20275729486528    2.11540090248913    7.94697450975956
H        14.80788236959773    2.97327187412144    8.18995929910037
C        13.78268247871065    1.91673919748667    6.62859896028488
C        14.13002956300273    2.82766668310015    5.55694569022837
H        13.73167934880687    2.57676020719801    4.57121424461450
C        15.92355827026929    5.76589843979392    4.91556540302328
S        16.23475469005098    6.69276560563544    3.56131042450904
I        18.84855836885088    9.66718817580835    1.85926982462203
N        20.81036234806526    4.66894183394896    3.75904410151519
H        21.16291468124111    4.48572873791908    4.70005569329212
N        21.10533220983507    3.85782320220207    2.73438606518529
N        19.59550101440331    6.00992280833294    2.35632571283630
H        19.87868793356466    5.38536963246588    1.61635888103008
H        19.04299207850828    6.82730468295482    2.14177155743222
N        22.92747105686329    0.87591987157545    2.23339646410995
C        23.28372969570326    0.00483640599692    1.31216673232307
H        23.89088938614593   -0.81956226333433    1.66247216438783
C        22.92064071850747    0.11211888061260   -0.02450404726983
H        23.23956674425100   -0.62788441353048   -0.74132553333224
C        22.14074238214213    1.19370900530029   -0.40764130953116
H        21.83618965627129    1.31515854728444   -1.43694963831810
C        21.75982910874446    2.11480107388303    0.55022426149191
H        21.15546612394455    2.97269655130819    0.30542679104249
C        22.17858719901485    1.91776846938499    1.86925440561761
C        21.83115671917447    2.83018082735908    2.93955705976994
H        22.22849829261402    2.57962600950883    3.92581086208274
C        20.04140374432017    5.77070794319407    3.58090740282187
S        19.73178183691791    6.69639196768470    4.93642006558588
I        17.11117423596549    9.65879764947887    6.64670178811090

