47
CSD_code = WIRHOU | q = 0 | S = 0 | Stoichiometry = C14H26Cl2NOPPdS | MND = 4
Pd        2.24782642172772    1.70887150433227    3.29675356597768
Cl        1.17868136944059    2.83425251669265    1.60847325265210
Cl        3.49990888999225    0.57229027021823    4.84935505518013
N         2.11481806223644    0.05625617832476    2.14377167301001
C         0.88000175243448   -0.35149740236484    1.89868495946493
C         0.56771527636452   -1.29056802152124    0.93531130851915
C         1.60988670776712   -1.83480135862887    0.20161968634969
C         2.90709272435462   -1.41528794578371    0.46825514148726
C         3.12314214831497   -0.46089663529795    1.44915083376240
S        -0.36266309632729    0.48463920763230    2.92134531920603
O        -1.66047812878822   -0.00763961831331    2.46436848681161
C         0.06759648490736   -0.57372475777315    4.38630924864603
C        -0.63554086501092    0.00066849592754    5.60289264247020
C        -0.30577435653288    1.48374258942702    5.73727980398044
P         2.74066300002745    3.69397908094167    4.22663881506928
C         4.24933711085211    4.25346776569510    3.30655232108262
C         4.91158103609656    3.07927671718201    2.58278594551239
C         1.62289297155000    5.13875454280275    4.02544996816767
C         0.25786615996656    4.88318454803087    4.64771704978748
C         3.26234404308983    3.70411500052180    5.99674794729215
C         3.56126390868286    5.07353093540289    6.59106833087053
H        -0.46641062464385   -1.55723255072878    0.78450644130713
H         1.41754596152059   -2.56967361046430   -0.56525950832525
H         3.74292465041376   -1.81606873892703   -0.08270500762629
H         4.12114051132935   -0.10926690878601    1.69503324340968
H         1.15104287958978   -0.52571978761169    4.52018099895624
H        -0.25252740030569   -1.58811160133957    4.15746238940434
H        -0.30703861104670   -0.54222836461304    6.49264287228796
H        -1.71445687609349   -0.13241930157495    5.50070208164178
H        -0.54587563664182    1.85031974363710    6.73229219526869
H        -0.88144592715515    2.05768716138910    5.01305046860053
H         0.76627890978309    1.64689180246808    5.54978478425563
H         4.95351982599389    4.71179947507853    4.00655110324961
H         3.93810191550608    5.00682707623078    2.57764482434134
H         5.81985245409987    3.40557075172544    2.07769823465006
H         4.22231682518860    2.67471421643582    1.82571329187357
H         5.17544268517184    2.29278275076965    3.29537673660182
H         1.50805805686643    5.28858665087507    2.94969560776115
H         2.10722403852143    6.02012926077950    4.45348426662030
H        -0.37850711364424    5.75966680407262    4.54543852241951
H         0.34304739833641    4.63715106865844    5.70483764470729
H        -0.21697377663979    4.05119608662283    4.12970289688546
H         4.14504538858383    3.05996504549521    6.04161359493246
H         2.47993798255727    3.20405294708995    6.57386449744149
H         4.00326128358047    4.95286476064422    7.57808179300673
H         2.65347348647279    5.66147032898624    6.70035369309444
H         4.26286009142847    5.63193131962486    5.97472097793159

