29
CSD_code = WIVDUB | q = 0 | S = 0 | Stoichiometry = C12H10F3MnN2O | MND = 6
Mn        1.65993249841458    1.77524646985630    3.21238238281182
F         2.05257607410412    0.09158576217558    3.12711961144139
F         3.25219402337295    2.37840350541838    2.74181313482205
F         1.03775404288438    3.27947965416582    3.79409928133321
N         0.90892870300437    1.88801531215957    1.49787425911371
N        -0.24450568721147    1.06951983170333    3.68831679026452
O         2.66626447691697    1.65683651815548    5.27151415248776
H         3.41858371625667    1.09229074022451    5.05241763976644
H         3.00377259869794    2.55912128215720    5.33966976884357
C         1.50079312900529    2.31015955806452    0.37239681577551
H         2.52875071201896    2.62884524749277    0.46968462697563
C         0.86139805844415    2.34693837134741   -0.85466576250443
H         1.40534817399490    2.69931125425385   -1.71685131650765
C        -0.45798715736177    1.93745295249284   -0.97668207675186
H        -0.96784640571047    1.96054462359927   -1.92688750636652
C        -1.11642684460162    1.49021158351279    0.17248966749977
C        -0.39327225582725    1.48373978996047    1.38477385767808
C        -1.01238581868983    1.04186852640282    2.57529241874063
C        -2.35780809637438    0.60240057172172    2.57749578398376
C        -2.89108511823441    0.18550395126730    3.80064007652467
H        -3.91352590174289   -0.15877820783272    3.85542975981904
C        -2.09177274845363    0.22229410480071    4.92754887472212
H        -2.47371598770162   -0.09219925880870    5.88573354653040
C        -0.77527268131117    0.67045630073053    4.82650622725282
H        -0.12856636254715    0.70807712984906    5.69274971270592
C        -3.06586823625073    0.61718511370881    1.34058214483884
H        -4.09264098661907    0.28167988426204    1.33732182810774
C        -2.47195772727841    1.04009651453924    0.19764714960294
H        -3.01915819119804    1.04691291262243   -0.73371284951107

