50
CSD_code = WIZQON | q = 0 | S = 0 | Stoichiometry = C25H18Cl2CoN3O | MND = 6
Co       -1.50183962744671    2.48284370544336   14.99827946907845
Cl        0.05828513043388    2.90268541362863   16.50507855290615
Cl       -3.05672301095962    2.08274905092677   13.45294547498752
O        -2.73082030772086    2.09096254458391   16.35442752802525
N        -0.93722951626567    0.70602339569310   14.87105014164159
N        -0.33026531170546    2.78423431817730   13.65737126510954
N        -1.91750953729052    4.29676087638050   14.91877828283445
C        -1.29952263341207   -0.33083835655459   15.61150894640150
H        -1.97786213152073   -0.11415801797501   16.42486779634282
C        -0.84780873298750   -1.61457756503485   15.35825743969749
H        -1.16860769114320   -2.43012331074992   15.98597833250876
C         0.00872605619404   -1.82983511577417   14.28620041353712
H         0.36691801327381   -2.82199586102261   14.05772574917995
C         0.39274636215778   -0.75139602841154   13.51326629891868
H         1.05077864632045   -0.87128471291799   12.66699470148224
C        -0.08906556285600    0.51658273534227   13.83669077581178
C         0.23192641378526    1.73949257438482   13.12697717679495
C         1.03732525891927    1.68639921197182   11.89402699057245
C         0.42434405595559    1.94348788706198   10.66935960991009
H        -0.62182555613765    2.20977217409940   10.64790135515020
C         1.15695353782593    1.84908348136996    9.50072184201024
H         0.67921439763573    2.04601703484085    8.55303711227184
C         2.49827544811244    1.50244008057503    9.54415470529358
H         3.06815422256618    1.43373958581447    8.62985134222040
C         3.10826575838143    1.24273666960146   10.76033137587014
H         4.15304208589988    0.97265789985146   10.79612467167887
C         2.38085099924586    1.32485716816778   11.93478961125506
H         2.85244716393821    1.13300213405341   12.88746357757576
C        -0.21148811507989    4.11473915743555   13.29933762576577
C         0.71014423856031    4.66277925855309   12.41103341502697
H         1.44135003623101    4.03689011334007   11.92740568768449
C         0.70038585781092    6.02286160227655   12.16844083746745
H         1.41502011340331    6.44695319735671   11.48031430641124
C        -0.21868198663560    6.84134639676070   12.80882301047815
H        -0.22422921221999    7.90201718014244   12.60784019003405
C        -1.11640668050968    6.31983520331489   13.72059836355395
H        -1.79769090359530    6.98800417432388   14.22243062263559
C        -1.11826811248419    4.95244060278688   13.99325087309387
C        -2.82626979657867    4.90352343572683   15.63081967394652
H        -2.98997824280845    5.96784779342240   15.47600980926310
C        -3.63222109721096    4.30048984843210   16.61481257775819
C        -4.56164565935307    5.10093351490304   17.31763407388351
H        -4.63143053034218    6.14832751047361   17.05836773226956
C        -5.35417973005706    4.58253211123214   18.30027960765202
H        -6.05775595515513    5.20729333093475   18.82826926244622
C        -5.24707685094397    3.22097465221258   18.62496354619706
H        -5.87391105562503    2.81152004863967   19.40409236837095
C        -4.36473697053012    2.41113374901680   17.97062496663603
H        -4.28027147775114    1.36311373891976   18.21495921513956
C        -3.52373180032267    2.90592440626717   16.93593169521708

