64
CSD_code = WOGWEU | q = 0 | S = 0 | Stoichiometry = C22H37Cl2NSiTi | MND = 8
Ti        5.58222165602581    5.08216356373535    3.33566600507794
Si        6.41134853812516    2.55257942105159    4.48843108679345
Cl        6.54637383000297    7.00694322699941    3.03528153596191
Cl        3.75975789718530    5.78963561402252    4.29580525876543
N         6.40217211849192    4.26508956711757    4.77058244227662
C         5.84171814620296    2.93043634386027    2.70125936815265
C         6.65693426303038    3.77416895993850    1.87778086185025
C         5.81592469017640    4.61007128120383    1.09698384515839
C         4.46825152843148    4.31914613299215    1.45174059267019
C         4.48710681570452    3.29228431934779    2.43081677685170
C         8.15206366484722    3.73625687124398    1.74501677056281
H         8.60164996286572    4.65536029847043    2.13189582484207
H         8.43176177793220    3.64044349581127    0.69408235122268
H         8.56067247951968    2.88948212857742    2.28856870653657
C         6.28608472787320    5.52436115080275    0.00360688532544
H         6.48236331941478    4.94993425143023   -0.90550699858070
H         7.20709507348268    6.03170916533445    0.29335159381698
H         5.53761925790131    6.28076008996305   -0.22916495691860
C         3.22749732683908    4.90516739281931    0.84512136722673
H         2.82086743514898    4.23048820858892    0.08747828385808
H         3.43565472663548    5.86254908019462    0.36840315356149
H         2.46431707907177    5.05848363431730    1.60961924726851
C         3.25821694938238    2.62316269482464    2.97098337566626
H         2.76098056016144    3.25048765631424    3.71474073088707
H         3.51615540029856    1.67212446312860    3.42892078265564
H         2.54992083747930    2.43762904545105    2.16235459019695
C         6.60413399763118    4.96423126669651    6.01401581920421
H         5.93932723272254    4.55200038360255    6.79092253364920
H         6.34444072834170    6.02757102161307    5.87299035744641
C         8.06374765642957    4.86250979568156    6.49585161592169
H         8.24092141293182    3.79469436902342    6.65985440142409
C         8.21810011463181    5.59861631730096    7.85085049403959
H         7.34396514451242    6.25083117099871    7.97902669109891
C         9.42931465663681    6.53119365545576    7.84994656469995
H         9.56645382721361    6.98934801601388    8.83103357915683
C         9.27132049248513    7.45966832587319    6.63328704239747
H         8.25377977480944    7.66336760311252    6.30562960040483
H         9.80873535637778    8.39967197876828    6.72084341849798
C        10.02662116734805    6.38338152893870    5.84535219779962
H        10.67804486244114    6.69873666535623    5.02876024349404
C         9.01379095467755    5.34789692593510    5.37237741153257
H         9.54095176269306    4.49412052711128    4.94252328661500
H         8.41362945985210    5.79352416114296    4.56927552504647
C         8.20810849570438    4.62696066755109    9.03096288319492
H         9.06332207469455    3.95971026291403    9.01044647378652
H         7.30044365977620    4.02689159423019    9.01408711971266
H         8.23117395921245    5.18004755662893    9.96774721347672
C        10.69379026740617    5.95041321932290    7.16918184926038
C        11.92868159893847    6.79193068861208    7.49543980382125
H        11.74086164201404    7.85573601408266    7.39273884831864
H        12.74758811856902    6.52698600177081    6.82892567549739
H        12.24741742445960    6.60191769196587    8.51892747155520
C        11.09030699112722    4.49003653413190    7.34329518736817
H        11.41156932179865    4.31245969785169    8.36822754149670
H        11.93039975029292    4.26872456247266    6.68587267226702
H        10.29017919970073    3.80091575344316    7.10621708013004
C         8.07280867918853    1.60630093417484    4.63937963764380
H         8.11422065963641    0.78235815288134    3.93475298344815
H         8.17251813308511    1.18428028722516    5.63385347316678
H         8.93562878033610    2.23952810255381    4.46403876674857
C         5.16382885793673    1.65007067361033    5.62731454438771
H         5.60387519731198    1.50346487348060    6.60897943994115
H         4.89651990596403    0.67034909634566    5.24685537091199
H         4.25454861906195    2.22983586459293    5.75589569982371

