53
CSD_code = WOLNIX | q = 0 | S = 0 | Stoichiometry = C18H24Cl2N4O2RuS2 | MND = 6
Ru       -1.46175882147386    5.30201187720656    9.22131987587388
Cl       -0.74256827579452    4.93362361785470   11.44610033499710
C         0.02436667737733    2.92818113447593    8.15641088663478
H        -0.94601435701545    2.45261562996884    8.23636904002262
C         2.35849817998994    2.89031513859306    7.63690838275893
H         3.24162377950404    2.37626865065147    7.29000482829945
N        -0.01540012412077    7.90734427775187    9.56324157593710
C         1.26512197194595    4.84360329068030    8.46121106782572
S        -3.14006734930708    6.50332522104775   10.14867247877591
S        -2.12309257947205    5.73038767845336    7.08999030814858
Cl       -2.97153029104367    3.51736705074977    9.21695587417782
C         1.13630531248198    2.23744779382262    7.70540339125497
H         1.04101027457390    1.20401088983044    7.41459378899159
N        -0.07565101370377    6.67930141331064    9.18882501992086
O        -4.02771992110238    7.14885855297210    9.18074533202646
O        -1.14693799397420    5.21704575569994    6.13277148658204
N         0.08333186059586    4.20009579462542    8.52530103458165
N         1.25775848923765    8.28473065618152    9.52386286644242
C         2.42538878240372    4.21701447588851    8.02324561883993
H         3.35187050271771    4.76798533234856    7.99001784186091
C         1.17271069045792    6.22069246836870    8.88520878142175
C         2.04059709006310    7.26881327671459    9.11272541533446
H         3.10293008403652    7.35416101903113    9.02917572190567
C         1.66247381634232    9.55498968876519   10.05639975595847
H         0.77180820522883   10.19066596016201   10.06986850032835
H         2.41291963608209   10.00426694366293    9.40016374262042
C         2.21201942533147    9.39828096793588   11.45885377028980
C         3.30561583192255   10.14915672148850   11.86603211404353
H         3.76697300270224   10.84395925103545   11.17849960788394
C         2.13016482219162    8.36697926261352   13.62670548381314
H         1.67094992743812    7.66414893006109   14.30424509503612
C         3.80387575029097   10.01445505342174   13.15019570487383
H         4.65381271041754   10.60431275597747   13.45914672168769
C         3.21860625666100    9.12118081557659   14.03118448420327
H         3.61221999585259    9.01203522970541   15.03037979597507
C        -4.18942789985508    5.59121471389762   11.31077922236125
H        -4.90505484763337    6.27726127725109   11.74817310779730
H        -3.53008088572806    5.15425606737292   12.05385712183444
H        -4.69274621968695    4.80672133888066   10.75444787816136
C         1.62390747119540    8.50593746981385   12.34662469078920
H         0.77575312479894    7.90876484235840   12.04480490067805
C        -2.60706183429743    7.79747735122393   11.30976907031232
H        -2.01218595502772    8.51150550784310   10.75195354377177
H        -2.00280597447790    7.30412679519688   12.06309581815021
H        -3.48165915013411    8.27183635704638   11.73841833710985
C        -3.76863643756639    5.19715660447371    6.55488380819890
H        -3.87347870706814    5.40573835498632    5.49695445655803
H        -4.48252984588743    5.74664711654324    7.15826963902894
H        -3.84675345473834    4.13318021837349    6.75430457029207
C        -2.30518572898781    7.50245395926375    6.70289365872579
H        -2.57470017795331    7.60042651331495    5.65817258423583
H        -1.35060838955813    7.98279966669830    6.89022463085095
H        -3.07165743617323    7.89826326903296    7.35873723180779

