42
CSD_code = WUJRUP | q = 1 | S = 0 | Stoichiometry = C12H20ClN8Zn(1+) | MND = 5
Zn        7.77127387878043    4.12085009300415    4.87790183012845
Cl        7.61732428260819    5.78639342784413    3.53102861752935
N         9.66898767386506    5.16318004140552    6.78342686003300
N         5.96090137133386    2.24729177776087    3.63859934119766
N         8.33485443802285    5.24993511907690    6.57727878261423
N         7.24716461692864    2.63047938023452    3.46999685850359
N         9.66808038403488    3.43280418954203    5.30474288709137
H        10.17489215742543    2.65974303950795    4.89502465373174
N         6.01525397266796    3.34334909984029    5.63278982293551
H         5.56574825697786    3.52411722078326    6.52026131978399
N        11.60678377540454    3.86529842450870    6.51681129236145
H        12.10518127828006    3.12096289668091    6.05977818017154
H        12.08333336420702    4.38609127571642    7.23042512460971
N         4.17688580082301    2.00244278345984    5.14376392021293
H         3.72918453423860    2.22982302243101    6.01509563375079
H         3.72662849113815    1.33966775912302    4.53907863468131
C         5.36697317180165    2.55316389643487    4.85426438851755
C        10.33411833986458    4.11331946835477    6.16746629468879
C         6.48852445971786    6.75963344118797    7.14111638325743
H         6.01123486846459    6.36766599951136    6.24626094136151
H         6.41972378601866    7.84404313512144    7.14303274153044
H         5.96596049108283    6.38393257553126    8.02041188548190
C         8.94614398120244    2.61690911112548    1.70394791225325
H         9.37606525904008    3.46332838847042    2.23396769196851
H         8.88378808069686    2.84719053110896    0.64386824187734
H         9.59455146572994    1.74972713817051    1.82620085735122
C         7.90736864671434    6.34298970327586    7.16929376671084
C         7.59755189997681    2.32997065971433    2.23912789770979
C         8.99559383518796    6.99503394166702    7.78821431377589
H         8.96236188028443    7.91110839197217    8.34108763456940
C         6.50657057969993    1.72668589621462    1.57710711737076
H         6.48465984258203    1.37999822029541    0.56453720124708
C        10.10522819845644    6.23566225392076    7.52605459189054
C         5.47560038004440    1.69002270722203    2.47850445602813
C        11.50702778878565    6.52418269867131    7.92221312717957
H        11.53787688861573    7.51822391542151    8.36178484479383
H        12.17561956690899    6.51934759728455    7.06187736356967
H        11.86765601137198    5.82471109561108    8.67838048866359
C         4.09621987092889    1.19047419431284    2.24865826016551
H         3.98689258244602    0.97010861971843    1.18950594388717
H         3.34962220927755    1.93870293596414    2.51276039392225
H         3.90398763836540    0.26443393280089    2.79335150088984

