55
CSD_code = WUWFUQ | q = 0 | S = 0 | Stoichiometry = C22H28Br2FeN2 | MND = 4
Fe        6.15009104433953    4.03782437592787    4.31896965113359
Br        5.99313155628022    6.25175009484918    4.73253736262908
Br        5.76123149492416    2.19262777418792    5.56100712991206
N         5.27398067448072    3.70325555487203    2.67041591189163
N         7.84966473121608    3.73178307821527    3.53318932493995
C         5.71319654777486    3.05180492317962    1.65462457145403
C         7.05359589994508    2.35985106320244    1.68000523960657
H         7.39976327853109    2.27593406441851    0.64370395611469
C         8.12309200778450    3.08591877279889    2.45771296294516
C         4.94653724168097    2.89309804783802    0.37565799860424
H         5.00612400373276    1.86351552076684    0.02754455784266
H         5.37663635792952    3.53147469851621   -0.39743229308194
H         3.90306414146276    3.16809430532192    0.50612876364479
C         6.89010044018422    0.93003564472953    2.23533092869507
H         6.54851376434971    0.95988524116329    3.26515132852551
H         7.83952498554585    0.40180999468407    2.19850753429304
H         6.16493679614629    0.37700415009578    1.64372707870287
C         9.50559111831337    2.97018976113771    1.88937423420446
H         9.60870007927794    3.63415491017563    1.02982138986305
H         9.68889394759638    1.95273401619685    1.54882787646973
H        10.25730183968457    3.24371999257442    2.62550187055634
C         3.99972407866359    4.32916415478506    2.61126862943193
C         3.87870077950604    5.60705839228367    2.04463725079876
C         2.64592971903780    6.24084508729620    2.08240340335952
H         2.55907266723461    7.23190460263887    1.66313451039986
C         1.54250822062490    5.62349798670942    2.64076775625284
H         0.59285966403471    6.13547050953054    2.67337445253647
C         1.65497794478575    4.33661085802794    3.12972855751246
H         0.78842315326188    3.83042113624449    3.52889822589805
C         2.86961672374635    3.66384653791036    3.10955684175721
C         2.92562477109517    2.24492548267490    3.58503484221436
H         3.78317210496387    1.71623317615480    3.17699047665848
H         2.01690296760556    1.72119616122703    3.29483958115571
H         2.99538154667415    2.20603128779878    4.67140170268019
C         5.03458438552166    6.30979527029633    1.40144444445282
H         4.73164486432325    6.71960460790074    0.43935666304454
H         5.87997351879257    5.64356657139232    1.25285062680935
H         5.35953694727950    7.13486113051269    2.03302513617371
C         8.88888211868239    4.39081290628336    4.24376318715956
C         9.28619784604224    5.67847418616448    3.85430037161229
C        10.23735249787239    6.34349302582788    4.61302159594815
H        10.52802890139584    7.34163716504933    4.32188173914610
C        10.81023456427890    5.74749308523280    5.72071856836192
H        11.54105447298809    6.28251405287765    6.30782181677196
C        10.46168258775776    4.45381569279506    6.05689165077701
H        10.93282285360315    3.96658478548721    6.89779433907318
C         9.51490872819642    3.75077255606202    5.32358406467849
C         9.21851880924078    2.32845433132977    5.68647402933587
H        10.12972144097694    1.83134843280907    6.01316034257914
H         8.79662710484263    1.77822777016169    4.84932470317694
H         8.50547434346145    2.28299336809044    6.50877677826849
C         8.72265339401705    6.35622203033078    2.64274833157048
H         8.00453737859356    5.72556859089778    2.12680175592569
H         9.52693079365236    6.61598040503425    1.95506254102028
H         8.21906615606801    7.27480867733051    2.93685370450149

