47
CSD_code = XALGOJ | q = 0 | S = 0 | Stoichiometry = C20H16Br4Cl2N4Ni | MND = 6
Br       14.69954940461924   10.04984041614722   14.02102232671218
Br        7.55939653891330   13.58049962091600   14.22899989383361
Br        7.44578856289342   11.76797574788970    6.06159832564169
Br       10.82579666493675   13.76498195397294    4.61128964797866
Ni       11.24277785693259   12.79791307745857   10.11822406702095
Cl       12.11734809879568   14.74577556009655    9.69693895232978
Cl       10.35203026253305   10.88540100610306   10.67014504326926
N        13.33469544731137   11.93551203419843   10.62802676091966
N        10.89171331032358   13.38716793251216   11.84897792506706
N         9.14603789310888   13.50587478064864    9.37796131034796
N        11.57223685017149   12.19346170485425    8.32377930046870
C        14.42813912442412   12.53447294790152   10.16126260759169
H        14.30319460300465   13.11836894166231    9.25955815195992
C        15.66250773781841   12.45402637848490   10.78636991970537
H        16.51831430476085   12.96158244339396   10.37022975979492
C        15.77717065651682   11.71817178476248   11.95404003920058
H        16.71589220962782   11.63638758590574   12.48060627484031
C        14.63906899864543   11.08124107539353   12.42304389552203
C        13.44434169072316   11.20232885736819   11.72962486925726
H        12.54896818626942   10.69403646916108   12.06630534037344
C        11.85562465620870   13.85997539741082   12.63777857036687
H        12.84506347569437   13.95678100811637   12.21411095950601
C        11.62707093942265   14.25289014549447   13.94580260142985
H        12.44435352645739   14.62224801281668   14.54424808560817
C        10.34810216997015   14.17432428455219   14.46812442715999
H        10.12895446545889   14.47348544374173   15.48128439107673
C         9.35230323986400   13.70033619652474   13.62919575531700
C         9.65647353033236   13.31099325470050   12.33394899046431
H         8.88438363447108   12.92376424765306   11.68300351203984
C         9.01440403567302   14.80969596478049    9.13117424342691
H         9.41192296753195   15.47906666151156    9.88184262768558
C         8.43043909824570   15.30925496735117    7.97784596299165
H         8.36062366304584   16.37357789744601    7.81970083792061
C         7.95709953667339   14.42213489218056    7.02435900741117
H         7.52794366455572   14.76517143695968    6.09553427389312
C         8.05164301875618   13.06966055092515    7.31035910170808
C         8.62491399181978   12.65258693922799    8.50148005614641
H         8.68193534449654   11.60072598030592    8.75574706551469
C        11.86932481627940   10.92050705552466    8.06089119893445
H        12.09392102319116   10.28600910670497    8.90564348879171
C        11.86288814232182   10.39833298511265    6.77757480922768
H        12.09498413820634    9.35686761842390    6.62335835304820
C        11.53747218429364   11.21359953205447    5.70758311599513
H        11.49152836274286   10.83776105669365    4.69726234267033
C        11.27405034590467   12.54371426102898    5.98958606783709
C        11.31061085594822   12.99866498301081    7.29801120343405
H        11.14089677010000   14.04654980087942    7.50964453856698

