29
CSD_code = XAQDAU | q = 0 | S = 0 | Stoichiometry = C9H14Cl3OPW | MND = 10
W         3.45408542583538    3.52393801288008    9.37374130187217
C         1.22870418338598    3.10700919525765    9.12906745379676
C         1.74886753027127    3.55741875874880    7.86916273425317
C         2.61352304643761    2.54345090565453    7.37197632088593
C         2.63085891845477    1.48239368610938    8.28895583752765
C         1.80195837809010    1.81748973458947    9.38470437938255
Cl        4.83228904480438    4.58258033422971    7.73718822678992
Cl        5.27778708042431    1.93683540381842    9.42790827614019
Cl        5.06863005401660    4.62767572584605   10.93906674082346
C         3.05803789596136    3.13866393714956   11.28280031463659
O         2.82582990854134    2.94735455568226   12.39722275005512
P         2.80802211815525    5.92787164560949    9.76069332353351
C         2.33981814345051    6.32660052023903   11.48712117765211
C         4.02296071722069    7.23505679374173    9.37602229436743
C         1.35362722515227    6.62646800381100    8.87180886600658
H         0.36197464226059    3.50883584051403    9.63951772571987
H         1.36031285296877    4.37233329795731    7.27457404193399
H         3.09473037431001    2.54761325352406    6.40335435575714
H         3.14910578589030    0.54253316252131    8.15979445507993
H         1.50286820278515    1.13827326345226   10.17214854952065
H         1.46801553470204    5.73959310274031   11.77219786687549
H         2.10410587986145    7.38685294774410   11.56820661391408
H         3.16539960492462    6.08341274910519   12.15269713569838
H         4.25299838585608    7.19633039766823    8.31223377145090
H         4.93905392776154    7.06550395058654    9.93870476884958
H         3.59600714526776    8.20469100397853    9.63362231925359
H         0.46345700237104    6.02487946925956    9.04119481630411
H         1.56823398276437    6.66815690476995    7.80559628743679
H         1.16993700808721    7.63868344280223    9.22981729448468

