68
CSD_code = XARHIH | q = 0 | S = 0 | Stoichiometry = C28H36ClN2Ta | MND = 9
Ta        4.85463262887176    3.47849181064632    3.45967821124804
Cl        4.54802485681825    4.30789457088207    5.52827147210016
N         5.08828273631208    6.16771224445192    2.69898857055158
N         6.19267524020315    2.53463298573451    2.70029942855538
C         4.75898071177664    5.18083165928372    1.99697115825983
C         4.39352716239612    5.25678594748337    0.54297023687846
H         4.93809933789502    4.50041118158813   -0.01693312642932
H         4.61133915456139    6.24734353347664    0.13813746621332
H         3.33014033114250    5.05236386490193    0.43246548407238
C         5.20144259972284    7.50614880262926    2.33431768321943
C         4.09286189190199    8.35152283383340    2.45521030274144
C         4.25512670349907    9.70236760094865    2.19501901766456
H         3.40400273410077   10.36258741700402    2.28275741908921
C         5.48896859957696   10.21104820214335    1.82894155811766
H         5.60048877026932   11.26630235633401    1.62963333360635
C         6.58026472805804    9.36661178689556    1.72420717509340
H         7.54501229242979    9.76403226584448    1.44314221534242
C         6.45722566803822    8.01016508455633    1.97772966812898
C         7.32304027706354    1.85749508829380    2.46405567341697
C         8.01414928192867    2.00471423599595    1.23825889275105
C         9.17325290821680    1.28662638985485    1.01420785331773
H         9.69355008208141    1.40396135960297    0.07403771227559
C         9.67709210789365    0.42659280001337    1.97582593492356
H        10.58266158783060   -0.12941604743084    1.78560380846538
C         9.02056981846333    0.29340541147629    3.18823952769833
H         9.42306049291993   -0.36607878454618    3.94426196583736
C         7.85889800092067    0.99437823361650    3.45276707927736
C         1.22698056900917    3.32678017904138    3.25654372507765
C         2.05077080247382    2.49801321541308    3.95800354891104
C         3.05118202157305    1.93286058532593    3.03254591063031
C         2.64399314691420    2.42045504090303    1.69921233185334
C         1.58696089621561    3.27038057876572    1.85194552542224
C         0.10300981848251    4.16209139433164    3.77289930119565
H         0.05393309092467    4.12523046747678    4.85801454278679
H        -0.84890683172740    3.80800615870494    3.37552698074942
H         0.22415305816409    5.20150473704137    3.46551908821335
C         1.96019931320420    2.12532877653181    5.40492021624742
H         1.58887944816363    2.95468842335435    6.00454552363347
H         2.93197093030301    1.82888489920323    5.79861163019282
H         1.27196738188296    1.28672258580651    5.53302587765624
C         3.43095384977611    0.47382595976275    3.17237556422477
H         4.26598709103585    0.22669432388068    2.52014766425872
H         2.57936554616025   -0.15094759675581    2.89693178595107
H         3.70304307716396    0.23499655220354    4.19884044143286
C         3.26990232319223    1.91095761342342    0.43848961721268
H         3.05908037546902    2.56265379216860   -0.40547689993872
H         2.87554304322763    0.92081314935716    0.20337973265484
H         4.34795051802528    1.82799834660364    0.56541802584918
C         0.82330912513612    4.00675865236031    0.80044763110206
H         1.24234267929344    3.83700644856387   -0.18837294272496
H         0.81589725922123    5.07916866954281    1.00211710429023
H        -0.21440758205725    3.67211060507907    0.79113115325385
C         2.76485672924624    7.77887457496004    2.85444777947666
H         2.87870043406994    7.12766921308507    3.72152800061441
H         2.34715737711627    7.18008389313874    2.04313011923193
H         2.06026305387557    8.57095833633916    3.09622706662505
C         7.62459577993732    7.07635333188660    1.85976644155253
H         8.56173061977926    7.62561666521487    1.89992151609054
H         7.58549030375011    6.53552744322325    0.91298225986900
H         7.60449428307903    6.33705173359485    2.66139653122082
C         7.46909403991144    2.95243755907548    0.21486718683827
H         7.18360410512719    3.88459775767826    0.70113557693660
H         6.57787766452257    2.53058716951013   -0.25039462274368
H         8.20524396769102    3.15167584853593   -0.55973720288663
C         7.15768353532059    0.87357935249912    4.77034729365088
H         7.71120565550800    0.22279825513607    5.44252821100332
H         6.15496796996527    0.46777153570918    4.62882585896603
H         7.05590282493702    1.86000093707083    5.23291918092287

