31
CSD_code = XAWJAH | q = 0 | S = 0 | Stoichiometry = C10H17Cl2NTi | MND = 9
Ti        1.76964402657168    8.87288741059424    1.92139654011469
Cl        1.67007386296544   10.93650960218385    2.61872106261587
Cl        1.42611229638233    8.69364716669960   -0.22099648665713
N         4.02405629982424    9.80827925027976    0.83604995912231
C        -0.31383468534780    8.82044140349413    2.13883477286189
H        -0.62338307505793    9.04403758662889    3.16489762444711
H        -0.75959927090017    9.57877455689959    1.48243319480214
H        -0.71752718897088    7.84359216864552    1.85076880311614
C         4.90155594440093    9.94786140288667    2.00099081661955
H         5.90212566406723   10.30656762955717    1.70236799289660
H         4.45072716681775   10.69193942289364    2.66679321155733
C         5.03144080046162    8.61939195596586    2.76558393587283
H         5.47401611831088    8.82577840702614    3.74363647644403
H         5.70058329216499    7.93739169250558    2.23551288994527
C         3.68384783422592    7.98095168965969    2.93970892173758
C         2.76422569972692    8.27457800731364    3.97091928410648
H         2.94514425746446    8.93776009304089    4.80818489193937
C         1.63914909003388    7.44080337162959    3.80836879043891
H         0.81982256082703    7.34238876869520    4.50777842179873
C         1.84908870592073    6.64080964126408    2.66242108066542
H         1.21524827169096    5.82835665732667    2.32845347181436
C         3.10895600633137    6.97621208848973    2.12417106298525
H         3.59591217171027    6.44513856243883    1.31568673151592
C         4.65916879303592    8.97879310425078   -0.18674928867941
H         3.98202438674062    8.87459062913155   -1.03332916121606
H         5.59708099374787    9.43515560203615   -0.53824541804944
H         4.88143826234736    7.98705297312297    0.19750039772152
C         3.77309764209778   11.11839966761262    0.23760195455091
H         3.05564606155028   11.00443185422480   -0.57665154775494
H         4.69886719707055   11.55805919662797   -0.16313623212846
H         3.35609081378694   11.80071843687473    0.97652584479589

