40
CSD_code = XELXIW | q = 0 | S = 0 | Stoichiometry = C21H10BrN4O3Re | MND = 6
C         2.69398957668026    3.20212713396180   -2.11555410060228
C         0.46489923500188    1.44126498712326   -2.06680677950436
C         0.03106645468989    4.16554523610492   -2.34520691492745
C         2.19371500063153    0.69507712360434    0.62430807709644
H         1.96270198250677    0.09906633628011   -0.24926832282304
C         2.64878576228763    0.08934509712550    1.78864126571671
H         2.76627787193460   -0.98180993793504    1.81847858900116
C         2.93566569187000    0.87084444455609    2.88894101749987
H         3.28690265867088    0.45454319379113    3.81926370780018
C         2.75804591476757    2.25168180773710    2.79050852464340
C         2.28508255953387    2.77981668879135    1.57912202650274
C         2.05917812645038    4.19809710156931    1.43433071304114
C         2.30824366300217    5.07394762397370    2.50247654071419
C         2.04930692327920    6.43337085059584    2.32117868615837
H         2.22583778261598    7.11227805605405    3.13977123209474
C         1.57096073948297    6.85577168030413    1.09787676541943
H         1.35233997761760    7.89491523009681    0.91226230554282
C         1.36132372355517    5.92246949977585    0.09057372930681
H         0.98590992311905    6.23403792919800   -0.87571833189530
C         3.03569412047599    3.14376067016033    3.89516117599223
C         2.81192348771623    4.54665819045811    3.75204248007721
C         3.75082899202160    3.47446486042548    6.03199040475549
C         4.24715415690137    2.97444364073952    7.25529215695441
H         4.40862952042121    1.91154620844755    7.34332644583348
C         4.50546170421336    3.83511964140769    8.28281750070710
H         4.88466791165619    3.45919360625092    9.22131826977882
C         4.28419866800902    5.21998258754095    8.14166398448988
H         4.49921248246253    5.87149646683055    8.97545037319627
C         3.80550370725537    5.73911098655511    6.97348020206303
H         3.62842089938998    6.79544321093042    6.84550592411703
C         3.52638631259405    4.87994568103755    5.88869586210636
N         2.00949783891892    2.00365487980820    0.51225657793419
N         1.59209540364501    4.62558213342436    0.24452018461267
N         3.49954098231434    2.63457216985627    5.01966197326618
N         3.06058993993228    5.38491619547060    4.73917063498050
O         3.67953309867456    3.29957797413087   -2.69403773388415
O         0.08734323250596    0.47579308892731   -2.55210480644375
O        -0.60904690334833    4.85302478767039   -2.99928920346901
Br       -1.02478532282366    2.86833826919488    0.41194055145936
Re        1.04281619935989    3.04208466802933   -1.10904168930950

