51
CSD_code = XIDFIC | q = 1 | S = 0 | Stoichiometry = C20H24ClN4RuS(1+) | MND = 9
Ru        2.24567042937716    2.72602500225150    4.35285495849446
Cl        3.49997402883670    3.20554917840147    6.26489926800737
S         0.44192380148486    2.31816796622788    5.84601682031540
N         1.58351689188600    4.65730438873027    4.48961170930751
N         0.43124559477064    4.86374591318231    5.21869616372793
H         0.09885690401770    5.82549043842334    5.29019828196758
N         5.54277710166968    5.60955918117471    2.99304758018215
H         6.50625374206689    5.36769770375538    3.16416798337021
N        -1.22810704371854    4.17462851338088    6.68141964730257
H        -1.61930288035854    3.44212571393964    7.25118629967322
H        -1.54621061405026    5.11702575073113    6.83742980444479
C         2.04558715951075    5.69740624367815    3.86614575494972
H         1.42687050688555    6.59509348891269    3.81834689722867
C         3.33253148863994    5.79234116258245    3.28127420448854
C         3.72734228549638    6.70266658112657    2.23541706049002
C         5.12180161396304    6.54810177254384    2.07957514045679
C         4.49403607922943    5.15647396014715    3.70482406643868
H         4.61304751312477    4.48347983099669    4.53695471880053
C         3.03921333778257    7.59372847660692    1.41708984239564
H         1.97190388414574    7.72376831655860    1.51083938526510
C         3.75742095411685    8.31259906942053    0.48434268566265
H         3.24588721483868    9.01601262702413   -0.15405147193654
C         5.13736633391297    8.15329178801630    0.34504688862845
H         5.66155960782477    8.73506673077025   -0.39653223597549
C         5.84075736779052    7.26818798813310    1.13635315023274
H         6.90679133537720    7.14236434987233    1.02903834917548
C        -0.15018815148116    3.89132933696830    5.94196660979286
C         1.36632932855472    1.52733058964183    2.57939057109692
C         1.92944169923984    0.64732234499218    3.53972238308406
H         1.31361324989667   -0.14361977816489    3.95855382630122
C         3.27978302823726    0.73684206104643    3.91085837470585
H         3.69370996969555    0.01774344236952    4.60995567199571
C         4.15726097846024    1.64393788530596    3.25131589912842
C         3.60378720655441    2.52735477939241    2.31881044384798
H         4.24526244808439    3.19759484258369    1.75907808122591
C         2.21337667008922    2.51135712165868    2.03627078674543
H         1.83738493752677    3.18151785248670    1.27158186761387
C        -0.06010701403267    1.35787185658295    2.11570985802735
H        -0.55592943580212    0.65044297459845    2.78924214327856
C        -0.06611409640624    0.76699376632766    0.70202531194945
H         0.40491320327678    1.44726809259184   -0.00375857833664
H        -1.08863151953577    0.59067256729925    0.38029726245344
H         0.46923794723808   -0.17926806151352    0.67956089953443
C        -0.83302155163191    2.67726939942616    2.16145318903040
H        -0.45065174211735    3.38640399542295    1.43147596065065
H        -0.76320998785725    3.12027394159436    3.15554321951237
H        -1.88099844413156    2.49702762868068    1.93901973630720
C         5.61928181053335    1.61809088261464    3.55565204523881
H         6.16947753426790    2.29974809024205    2.91207123862298
H         6.01098822776813    0.61055066581098    3.42152642829217
H         5.78628906494885    1.89694158545499    4.59698381679656

