49
CSD_code = XIGWUG | q = 0 | S = 0 | Stoichiometry = C18H18Cl2HgN6S4 | MND = 4
Hg        3.16335629281344    2.08752798270427    7.72022122766302
Cl        1.90315046671505    3.87073684273569    8.44095459721249
Cl        4.58143803047919    0.79865535509976    8.97817165389796
S         0.58391822500518    2.06587986427922    3.58105069219893
S         1.47859060190578   -0.81585098965886    2.92725800662162
S         7.02327318223854    4.38222671576395    5.82102905313372
S         5.26223951546853    5.28807290723577    3.49848528521713
N         1.94464306445569    1.77964844031652    5.73271771322229
N         4.93162390781631    3.21546412203171    6.73617764889321
N         2.08606451692451    0.61986193988974    5.07602447323334
N         4.53232321732716    3.81891682225492    5.60820618562192
N         0.96208836361292    3.89919420048014    5.53698394971091
H         1.22715728882279    4.12013340574976    6.50704941407328
H         0.23804671655249    4.44121956995900    5.09786336457348
N         6.79645390046024    2.88491634222093    8.09178432206019
H         6.27200359992752    2.19488935534812    8.63355275289462
H         7.79446125152627    2.94007634051868    8.19021992594094
C         1.19922012801151    2.66335167396063    5.11379948743201
C         6.19853150461929    3.38507098405306    7.01711291130292
C         1.46681208859007    0.56548495136064    3.95823506446658
C         5.46204590079627    4.45612610503517    4.99663359894282
C         0.48717476167661   -0.17022711595468    1.51001862670874
H        -0.50293515650787    0.06703916283469    1.90318696209692
H         0.98044045632792    0.73695252883842    1.15957600159239
C         3.57261242331631    4.70491455802684    3.04601225907598
H         3.05079035113821    4.57733816728396    3.99315489673353
H         3.13942622303365    5.52507154185325    2.47522555793851
C         0.41131496288025   -1.20305669906827    0.43212219491455
C         3.62466158428859    3.44649115418692    2.24187492465524
C        -0.23958309776614   -2.40930904464124    0.66463182342027
H        -0.68073794227257   -2.59610804540592    1.63262309918564
C         4.00876868734380    2.24389925821614    2.82766772001537
H         4.24268748097214    2.21204786280723    3.88128676069863
C        -0.31473091482414   -3.36609295267469   -0.33030274859394
H        -0.82104036276076   -4.30037858640421   -0.13971401317120
C         4.08579317194896    1.08744431232022    2.07383969107150
H         4.39037601403566    0.16404813011454    2.54262208134611
C         0.25809164882058   -3.12679897198308   -1.56863170302287
H         0.19843695713458   -3.87360575346634   -2.34597223075666
C         3.76539864287010    1.11266786583659    0.72631448326312
H         3.82499714843837    0.20606021107079    0.14244462313702
C         0.90789742638296   -1.92817228448075   -1.80642857190123
H         1.35609942508923   -1.73727449550454   -2.77018100350207
C         3.37101812335720    2.30224279830427    0.13752747260744
H         3.11965927744285    2.33219530604592   -0.91299062157717
C         0.98773367622648   -0.97147319623836   -0.80944474066005
H         1.49233797064475   -0.03512034399959   -0.99728027118322
C         3.30978054987374    3.46366737868785    0.88831442786281
H         3.01288874495966    4.39133432283548    0.42037096985050

