60
CSD_code = XITREX | q = 0 | S = 0 | Stoichiometry = C28H26ClMnN2O2 | MND = 5
Mn        5.99745023803793    0.98316110614570    9.01399738944630
Cl        6.49194437512435    0.90334905957349   11.15237925647369
O         4.29011265130965    0.74686680914402    9.31784308980727
O         6.40562513984725   -0.67452340553590    8.48301581540110
N         5.81878240171688    2.82728568612121    8.74790800302139
N         7.88238228073135    1.41106190394149    8.62192910251377
C         3.25732517094545    1.45718259469899    9.06194273443985
C         1.96342665128685    0.86226735536197    9.16287018661927
C         0.84341501170344    1.59528736139482    8.97024817069864
C         0.91033880839909    2.98494946911784    8.67572980742430
C        -0.27068778984794    3.72151680506156    8.49402515116304
C        -0.23320211703878    5.06107510970487    8.20482151291453
C         1.00208721890894    5.69687409210652    8.08519612703555
C         2.17074327452277    4.99625607718150    8.25912633335319
C         2.17160215574488    3.62390328310935    8.56528488209827
C         3.37373196156606    2.84466727704379    8.74351190797280
C         4.65161973547823    3.43203390903832    8.65189356790746
C         7.02595009162389    3.67346003804074    8.73352620802747
C         7.32896124717075    4.04204875740742   10.19496924343500
C         6.87632165877672    4.96887121044062    7.92011271931213
C         8.15150411036949    2.76777715164002    8.12876108796089
C         8.01427128159007    2.67506708516927    6.59709267072298
C         9.54745396065175    3.29236336332898    8.48426665775732
C         8.86715619557231    0.57668234230130    8.73498028018474
C         8.72188109822442   -0.82880112232009    8.93021055235749
C         9.84457018085130   -1.67124296356835    9.20865566655986
C        11.11155344444865   -1.17018824930121    9.56369210055998
C        12.16079179223979   -2.01218768795717    9.82810725344552
C        11.99908618464075   -3.39930060090015    9.75527629619600
C        10.77407792562739   -3.92051868016478    9.43626450716792
C         9.67859515513805   -3.08025020006460    9.16800366780938
C         8.40438519920905   -3.62202998526901    8.86923037065094
C         7.33035997498465   -2.82227261391261    8.64327682133332
C         7.45133212676295   -1.40671766611983    8.70025357041970
H         1.92434273939228   -0.19092798588655    9.39915816047432
H        -0.13172735365387    1.13522658601087    9.04491539624661
H        -1.21720371800301    3.20815762461706    8.58768056095683
H        -1.14590797009665    5.62143512253138    8.06844747659728
H         1.04076769032382    6.75149521820328    7.85333545966271
H         3.09965203517616    5.53450805991610    8.15173327106530
H         4.66161628713450    4.50281174028603    8.50311633867676
H         7.54337855262930    3.14612542704385   10.77499948525656
H         8.16223018134090    4.73490355087337   10.25708102913425
H         6.45049629700488    4.51570821401579   10.62875587608816
H         7.85841657221718    5.37287291707703    7.69220112278363
H         6.34782199612118    4.79914727068740    6.98533514536417
H         6.34848979598737    5.72541544289587    8.49586700930115
H         8.25975876567118    3.61857707175961    6.11945194061512
H         8.69389766743959    1.91155272371934    6.22160727465250
H         6.99680155762880    2.38644328064234    6.32953078798485
H         9.78928456642882    3.06799185498936    9.51899835254910
H        10.30298813349170    2.85811715594189    7.83352940632762
H         9.58481383192239    4.36868558065841    8.34542901979340
H         9.88075270159637    0.92880316680434    8.57722813479321
H        11.26088580538167   -0.10636518507336    9.66023509123573
H        13.12168234858406   -1.60309677828501   10.10394535374390
H        12.83563573109369   -4.04931731963012    9.96351725714255
H        10.62682787457612   -4.99021829286758    9.39441498038192
H         8.29769161463775   -4.69721539744950    8.83743361513883
H         6.35165749965559   -3.22951172143927    8.43744974184224

