53
CSD_code = XODLEH | q = 0 | S = 0 | Stoichiometry = C22H20Cl2N8Os | MND = 6
Os        1.29299856468112    2.98842609292931    3.12929545744875
Cl        0.59661263772675    5.08714962996761    2.38880264352066
Cl       -0.92057506784246    2.25482117126474    3.00811031736435
N         3.15880380935765    4.63428936689287    4.38792280250499
C         2.11373902003136    4.64604830005957    5.22843353751864
N         1.09870349232994    3.75861400261377    4.96183374777488
C         0.08939791129802    3.70600872454710    5.82641464792610
H        -0.71286440165791    3.01932878526964    5.58548021410127
C         0.06605438535601    4.50754848901073    6.95056939947920
H        -0.75851287128592    4.47135061620975    7.64157056732371
C         1.14261101402179    5.37928978931565    7.13145753493677
H         1.19415936024407    6.05031034565245    7.97814449318264
N         2.14658899879067    5.44469474306756    6.29010015922940
N         3.03703595349660    3.79707474171703    3.40319993720028
C         4.13045695606986    3.75424430394141    2.54346972080468
C         4.88538513143361    4.90992713709338    2.31360295805426
H         4.61169085062324    5.81179721111651    2.83760146770968
C         5.92642971249252    4.88524598602313    1.41292223017520
H         6.49276392341978    5.78637185360125    1.22894800419393
C         6.26261147659140    3.71700605183268    0.73123708332077
C         5.52616015609840    2.56499279585018    0.98713830873262
H         5.78455415567288    1.64343405919728    0.48619411177603
C         4.47231425270207    2.57468199281457    1.87841110235369
H         3.94297628553802    1.65678376220244    2.09178432516397
C         7.39823881449589    3.71258216332785   -0.24178915135814
H         7.52579313844844    2.73165405659022   -0.69142597964206
H         8.32463747301896    3.99025478539224    0.25953987615234
H         7.22137789161558    4.44011857341835   -1.03262196954499
N         1.63726264133803    0.28358942681523    2.55866616537889
C         1.45363422348046    0.83749026002544    1.35009042663957
N         1.45743783046188    2.21132302292252    1.29310806434360
C         1.33943448807376    2.77326451852524    0.09364307200459
H         1.31743942706254    3.85597642708082    0.07213314160408
C         1.22221926031052    2.00679585013410   -1.04913481697312
H         1.11176322887854    2.46506154391325   -2.01687351549484
C         1.22671090374101    0.61955093163765   -0.88662645168987
H         1.12444062730442   -0.05166504479362   -1.72847646600396
N         1.34535838636349    0.04728746186312    0.28771105881217
N         1.74358387288545    1.14515827367809    3.52276096601186
C         1.93896150093850    0.59102957428822    4.78436334977355
C         1.33013274162356   -0.62252585142356    5.11496130781320
H         0.75089197305767   -1.12729749609250    4.35825618993303
C         1.44350956220141   -1.12571450637834    6.39396510012694
H         0.94926298729892   -2.05306940502688    6.64323494800492
C         2.17808063391152   -0.45643515144596    7.36704509506356
C         2.81525820977806    0.73308359580778    7.01798589952929
H         3.41164715380779    1.25138181362044    7.75472292855844
C         2.70094312870976    1.25766161442322    5.74866745863813
H         3.23482494055240    2.16134182995598    5.48969894861027
C         2.30157809602801   -0.99411814582071    8.75728133932823
H         1.69669883966965   -1.88732042079336    8.88645495092465
H         1.98395803303077   -0.24671333362140    9.48289171074152
H         3.34002428472423   -1.24278632020476    8.97342158091623

