22
CSD_code = XOKKOA | q = -1 | S = 0 | Stoichiometry = C4H10Cl5OPtS(1-) | MND = 6
Pt        3.21149388243765    5.57027332794724   13.00466632842861
Cl        5.52992255756889    5.16470605277438   13.01129004294725
Cl        3.41560006790736    7.04977130860247   14.77084933590792
Cl        2.83484284301632    3.67728833933410   14.39967265808650
Cl        0.89656086499063    5.94698415562763   12.92704953016431
S         3.01464001594231    3.88963580519959   11.25917841887691
Cl        3.53330969442003    7.29647081924016   11.47326107773620
O         3.25455823936405    4.25240571732018    9.87376754575003
C         1.39224224033264    3.01292269538447   11.30933817994635
H         1.58084628918005    1.98746046324571   11.00067848336592
H         1.08188198816328    3.04727328585278   12.35082825534191
C         0.41377531200737    3.70661132463452   10.38761713576442
H         0.15248685474558    4.68107375438903   10.79194629724851
H        -0.49260307093446    3.11402030004956   10.27801834369372
H         0.87217170257862    3.84551501765326    9.41037513513653
C         4.14466054403019    2.48417031170896   11.62975888506278
H         5.08841698838787    2.95662289692603   11.90209944308602
H         3.72664732231679    1.98655442737597   12.50040015195963
C         4.30433493505439    1.59361606916222   10.41858377058871
H         3.42225849203425    0.97901870448076   10.24891227955466
H         5.16227730906025    0.93656451922583   10.54385766932089
H         4.46527492740264    2.21834070386376    9.54165103203082

