69
CSD_code = XOQTII | q = 0 | S = 0 | Stoichiometry = C26H39IP2Pd | MND = 4
I        12.66516561815569    8.40617510177615    1.50495954847057
C        16.35676813984516    9.57094602420631    4.14342767158430
P        15.06041674093487   11.12531787663205    2.07196258482869
Pd       14.61024295458079    9.16461362065479    3.12052524026843
C        17.41617706462848    9.21735224361908    3.07666556450729
H        17.26548818660669    8.20012749104185    2.69593585137970
H        18.42252051152665    9.26165893080283    3.50308454577438
H        17.38372133389747    9.91952291456853    2.24032649600582
P        14.26705782368885    7.57993460402275    4.65211346978290
C        16.07406988274260   11.92125528975386    3.35901190911053
C        16.39811355655033   11.04463455201856    4.41757420303945
C        16.32222054510765   13.28103808866063    3.46351996098812
H        16.12867785644724   13.93567241114731    2.62713079280714
C        16.79260046321382   13.81178688384960    4.65291634737798
H        16.97594691077985   14.87275086570413    4.73716853384314
C        16.78849562028598   11.61281883472574    5.62753179079333
H        16.94701298477941   10.98842799416414    6.49421560968854
C        16.96887081751056   12.98031403895130    5.74501982857277
H        17.26951251182630   13.39554458634998    6.69611991402029
C        16.63627828222296    8.69035180558819    5.34072040071546
C        15.72715310419125    7.70192947275923    5.72238646089345
C        15.96137372382279    6.90428489500771    6.83852772459037
H        15.22605603142946    6.17707250832455    7.15009953889965
C        17.13141083033402    7.05169307566021    7.55636075354810
H        17.31736418583832    6.43587045757416    8.42414958442399
C        18.07244495753866    7.98536105688223    7.14939686118785
H        18.99976509639906    8.08740038615145    7.69450660712469
C        17.82948231976392    8.79379468846826    6.05532972245009
H        18.57678324553909    9.51548334473137    5.75584695324307
C        13.45173032564315   12.06641776339249    2.13981628503276
H        12.84207029278592   11.58027302813004    1.36146372308215
C        15.70233154704544   11.46272815632959    0.34724530896435
H        14.99301475513024   12.14605303395013   -0.13495832496369
C        12.81768404047708   11.79262721178143    3.50536022219019
H        11.80906194948936   12.20131464065048    3.54686244815119
H        13.41151923006878   12.25157237942741    4.29946754798544
H        12.75369725000080   10.70713258424294    3.69303089590785
C        13.49875745248873   13.56483423339920    1.86139073640706
H        14.10022933542894   13.80158787013838    0.98552969604848
H        13.89614082135959   14.10339613178407    2.71874405976566
H        12.48750497728507   13.92622096679653    1.67938713455178
C        15.66724969963094   10.12470255134531   -0.39571277436565
H        14.64144102288407    9.77599771093239   -0.50468905429867
H        16.22914574286381    9.36174529722279    0.14994745796828
H        16.10034391895463   10.22462908281359   -1.38964524277313
C        17.09467462932070   12.08409302799563    0.31091688973206
H        17.39693048617870   12.23498784451716   -0.72497291860524
H        17.83351497671752   11.43850982622234    0.78335321071217
H        17.11578373399260   13.04808911276826    0.81331180406959
C        12.86216296979118    7.66519869905035    5.85513434692269
H        12.95283017892942    6.83095419203632    6.56224870699045
C        14.27824887449455    5.88476806152407    3.89735800035251
H        13.32649878339113    5.81923958184060    3.35107356550567
C        13.01077092751442    8.99429737561216    6.59592243936691
H        13.14275890595922    9.81016579679560    5.87637176913654
H        13.87915623861252    8.98166544385864    7.25428031174020
H        12.12490226998842    9.20370427451842    7.19327969052720
C        11.52502776429111    7.58597883172081    5.12753987767402
H        11.42845902750785    8.41217698263543    4.42322667961757
H        10.70349154211353    7.64785902251727    5.83938320503907
H        11.42776179252868    6.65444564849244    4.57247110957025
C        14.38823983984183    4.70896642688569    4.85791747259184
H        14.28897045782575    3.77813001165444    4.30101669219445
H        13.60239729850311    4.73398049038948    5.61064038979652
H        15.35746051677134    4.70280668273733    5.35324194215357
C        15.42014107076277    5.88964479226407    2.87905750865205
H        15.38754207755346    4.99663989983445    2.25729313466716
H        16.38400736626349    5.92131217701249    3.39116865603126
H        15.33795460938718    6.76641911052886    2.21599092599383

