48
CSD_code = XOSYAG | q = 0 | S = 0 | Stoichiometry = C17H25Cl2N3Pd | MND = 4
Pd       -0.64370041650716    4.39561801229248    9.29820766098361
Cl       -0.91264456730557    2.85789842837529    7.71283174211161
Cl       -0.06099917426542    2.81692232057560   10.76621151830520
N        -1.17840265358558    5.99742597117502    8.10390543902195
N        -2.26423433320316    6.66596973022980    8.52008889066839
N        -0.73962819365462    5.72523159054406   10.79913216799323
C         1.63874433756373    5.69837524583570    7.45139698576093
H         1.83147781589820    6.43987416031604    8.22952299496483
H         2.57976854259839    5.46660706360112    6.95821533392537
H         1.26475157749220    4.76521910447632    7.91180360938747
C         0.30704835045650    5.16514753952791    5.38776818864179
H        -0.13434670465943    4.30180380339690    5.88132770870912
H         1.21205876851701    4.85146970199114    4.87417071847810
H        -0.39710343256406    5.54535550972006    4.65082815891536
C         1.27167523305205    7.45484263598351    5.71332372869796
H         0.63321692480996    7.81337410499701    4.91022528028413
H         2.22506595606300    7.16488087311806    5.27900770676947
H         1.44649074940103    8.26937712974157    6.41346429590437
C         0.64074383263465    6.24916927122045    6.41990333819624
C        -0.63063360751924    6.67267428498188    7.10579000725962
C        -1.42090657977061    7.80446300799735    6.85735836932422
H        -1.25196412103650    8.53878576069614    6.10022336474586
C        -2.45309981020095    7.78595665017823    7.77588193838396
C        -3.59560987975808    8.76009683491355    7.90297080771733
C        -3.45898110976667    9.82982428409644    6.81172308651809
H        -2.53682926040235   10.39191496963234    6.93389504733736
H        -4.29236281148394   10.52537351695829    6.87533928647720
H        -3.47015888400983    9.37745546292013    5.82394686026512
C        -4.93354125315180    8.03790698079476    7.68819426559059
H        -4.93384919984605    7.53469265705575    6.72418002710308
H        -5.74537819885107    8.76148321733811    7.69768606768955
H        -5.13645817064395    7.29583582021495    8.45488835513003
C        -3.56817392810030    9.47247171625767    9.26318536179336
H        -3.83909613143178    8.81253673909271   10.08093630112035
H        -4.27548252306385   10.29849023246103    9.25559609095465
H        -2.57612242476875    9.87389556277396    9.45944698421898
C        -2.87347774838728    6.19913245805992    9.74779401855692
H        -3.08437473340666    5.11289106346695    9.63227819650400
H        -3.80483787518330    6.72721509434258    9.93782155830033
C        -1.90077896339508    6.38657424624710   10.89995121102627
C        -2.18069900878263    7.19213012050376   11.99081871458220
H        -3.12775035121317    7.70376916368859   12.06459093629032
C        -1.23577246732774    7.31525114194954   13.00052681455419
H        -1.43842159748827    7.92917997059935   13.86412079942887
C        -0.03521510952599    6.63367618352192   12.87670981850518
H         0.72490906742875    6.70193615790907   13.63768303390562
C         0.17342155731017    5.84521240854187   11.75821157338321
H         1.08346251103141    5.27411209568722   11.62231563561432

