29
CSD_code = XOXPAD | q = 0 | S = 0 | Stoichiometry = C6H18Cl2FeP2 | MND = 4
Fe       -2.30230683903796    5.80533565825792   13.91686915171787
Cl       -1.21809510016486    7.46544185183493   13.77021897069025
Cl       -1.53649769120391    3.88682646913794   13.47688046686131
P        -2.26564584055964    5.80425566529769   16.10425091073481
C        -0.55300498537176    5.57233628210948   16.71599336779132
H        -0.53857239857304    5.46352754484867   17.80056560027860
H         0.05091192118431    6.42920448443043   16.41883158973042
H        -0.14585886791373    4.67649904029951   16.24744764381998
C        -3.09742555377128    4.40741971081987   16.95683802927537
H        -2.85482016044039    4.40521410448966   18.01884300105636
H        -2.75195517687867    3.48397883726713   16.49428671799526
H        -4.17553946667653    4.48313494311701   16.82740539299389
C        -2.79988432394778    7.22752647259239   17.13672871638084
H        -2.59675834895639    7.03096560801643   18.18908798227415
H        -3.86491266634084    7.40237617849247   16.99513809006245
H        -2.25494417634704    8.11339139633994   16.81464283761320
P        -4.31451228598927    5.17269965401321   13.46087724262563
C        -4.93663950345644    3.44965138351066   13.49543204575899
H        -5.91606574194543    3.38374559231756   13.02203823269795
H        -4.99962496675667    3.10880189594399   14.52733289121319
H        -4.21794751772067    2.82265426402220   12.97041667695576
C        -5.70477448706620    6.06708305153221   14.27390708607135
H        -6.65321313913645    5.80722631375258   13.80627173864607
H        -5.53226248969924    7.13807826693051   14.18303470652248
H        -5.73727322159762    5.80861100835653   15.33045850506945
C        -4.62761809149476    5.60713983768749   11.69974449841250
H        -5.67033055934454    5.43386938128713   11.43491355136491
H        -3.98083464506833    4.99476897127016   11.07100854991005
H        -4.37799367572290    6.65713613203514   11.54473580547001

