47
CSD_code = XUCRAO | q = 0 | S = 0 | Stoichiometry = C19H24Cl2SZr | MND = 12
Zr        1.55297270807442   10.10681612612686   10.90184621208083
Cl       -0.40025304172350    8.99100899438632   11.57119162688324
Cl        2.11107954526849    8.28449010559738    9.54598552239911
S         2.03698532943214   10.42951509260605    7.09359350923104
C        -0.02186050899877   10.97495089236648    9.12930015826156
C         1.25245584759959   11.03502036436926    8.52458034369070
C         3.46651558659955   11.33107837371983    7.49817265916827
C         3.37199846939697   12.06554364581821    8.63390056830354
C         2.09806615311997   11.91901655614505    9.26195404591032
C         1.31522876002813   12.44870001999939   10.33573342561561
C         0.01431837462175   11.87906440542791   10.23376681922144
C        -1.16274946682530   12.24540846347379   11.09639071329345
C        -1.20162615346764   10.19917571909107    8.62293081482474
C         2.81525939157772    8.94634271954422   12.58780915844756
C         3.74623426841574    9.74170902771048   11.85094964234778
C         3.47926824210318   11.11156928472357   12.14001650918201
C         2.36572107340672   11.16385694258453   13.02695091652418
C         1.96940083786130    9.83089303838383   13.31676333398779
C         2.73737902918459    7.44572254319730   12.65195325728243
C         4.87920911410693    9.25130161231230   10.98954006763902
C         4.40382533661467   12.25675685686069   11.82964594553001
C         1.82364862775454   12.37713517918356   13.73113040023829
C         0.95639354545406    9.44621933249362   14.35665440180283
H         4.30725886727156   11.26520463250698    6.83534311814753
H         4.15914005640453   12.71399138517740    8.97934461450924
H         1.56489403467065   13.30379433897684   10.95049824737694
H        -1.97736610637726   12.62594252237117   10.47834787317152
H        -0.88427700952671   13.02254903872744   11.80803243248530
H        -1.53732771456747   11.37673841857970   11.64530189790371
H        -1.74966917446235   10.77749540077868    7.87505514783320
H        -1.88380699631267    9.95329275828864    9.43597813859148
H        -0.86429184724553    9.27268336622646    8.15458045228646
H         3.04507530548317    7.08943618686084   13.63734902312768
H         3.38277576227323    6.98680767261262   11.90509462109836
H         1.71285531080165    7.10690256143374   12.47021752528381
H         5.83318080267115    9.36011345394446   11.51082807657217
H         4.93155610991013    9.81589764540120   10.05418903305986
H         4.74802295701956    8.20080728025026   10.73686671696536
H         4.96608331769256   12.52207853217935   12.72830100070157
H         3.87278063796900   13.14938890733564   11.50039735510847
H         5.12139928157394   11.97463095672794   11.06284169138965
H         2.07746755241347   12.33602295605076   14.79244879453827
H         0.73488318585405   12.42476548598568   13.65627961198992
H         2.24726846503719   13.29332612925382   13.32510361681152
H         1.39093750878712    9.54952389832091   15.35417926857531
H         0.63684484045953    8.41438983473224   14.22867177546019
H         0.07494378260701   10.08642134115228   14.30308991514617

