57
CSD_code = XUJYAC | q = 1 | S = 0 | Stoichiometry = C16H34ClO2P3Rh(1+) | MND = 6
Rh       14.86969119649546   10.57840541689978    0.28840764355799
Cl       14.56509184778206    9.89279502773578   -1.87845458208918
P        15.12988243640626   11.24398014256859    2.45652357389519
P        14.52665244709587    8.45114773004797    0.98039233625744
P        17.08207024046307   10.11210851349831    0.17062768129227
O        15.21857506939770   12.49109681339222   -0.43956422263921
O        12.83354717848630   10.95800848114196    0.35147942639763
C        17.56877591769183    8.13692400198623    3.84450979355312
H        16.96195667913973    7.94862104444141    4.72702599944115
H        18.43424076228058    8.72175591413615    4.14692224582540
H        17.92219147968714    7.18064815456778    3.46653681828903
C        16.75547525991979    8.88042737499107    2.77218842811995
C        16.43707886911373   10.27921260818915    3.33242218460124
H        17.35285062245357   10.87628097507536    3.32329580835223
H        16.11732846014017   10.18340950915735    4.37458468016836
C        15.47463593039157    8.06343744683223    2.51965669195722
H        14.80104453634554    8.19359601419981    3.37048396529212
H        15.73352692351730    7.00170635601933    2.46697120262788
C        17.63196186792987    8.96284786657696    1.50974128096339
H        17.70923193542903    7.96386746670813    1.07260347377679
H        18.64152775407898    9.27438603211609    1.79458979625530
C        15.60362258670598   12.97992181000091    2.75549637339567
H        15.89653266413752   13.11434446998918    3.79702800271060
H        14.73766494485839   13.60587945580879    2.53790761826042
H        16.41425232120588   13.27879690524542    2.09469334469752
C        13.67761048533098   11.10241327245485    3.55563922954226
H        13.90618678973195   11.55948340982937    4.51877833222774
H        13.39787804786797   10.06183237725523    3.70226938893934
H        12.84156278302386   11.62789194819628    3.09433891398137
C        12.80270383595017    8.04539784863459    1.39022732878286
H        12.36156048335802    8.81343536838720    2.02090211700435
H        12.75277325900797    7.07211651685323    1.87884659384310
H        12.25124995929324    8.01595225875305    0.44995349287490
C        14.94814778087855    7.07883205953932   -0.13972759166915
H        14.57847736847134    6.14797996177587    0.29158580816584
H        16.02221025025443    7.00953729487135   -0.29463398902850
H        14.46395877065713    7.26178631354097   -1.09871985426167
C        17.72696198578882    9.35072615998138   -1.34719764860614
H        17.11385958388543    8.50639929959267   -1.65261223766916
H        18.76209023488398    9.04330312765435   -1.19446540789254
H        17.67356378961101   10.10174362848071   -2.13577976810524
C        18.19391194950300   11.54910080579286    0.32950757023105
H        19.21649138611514   11.23790559080489    0.11498369643743
H        18.14348999593021   11.98098310408257    1.32620049055370
H        17.87956171088952   12.29571846212264   -0.39912855311157
C        14.77722546435855   14.48651322832849   -1.60225275450279
H        15.83790179471248   14.63901162627923   -1.41851822492282
H        14.21254147979434   15.34672706488747   -1.25197998731173
H        14.61701116031357   14.38832063443558   -2.67489735248158
C        14.30639488664059   13.22539484221041   -0.92208833116879
C        12.92963155752514   13.00216488946071   -0.87410611774447
H        12.30005802953197   13.73384740555973   -1.35387177654351
C        12.28985600793348   11.92499138114164   -0.25964275505342
C        10.78204784517277   11.90566178565670   -0.29433098165609
H        10.45579295439072   11.71869670047101   -1.31578095460343
H        10.37796761768054   12.86417056500109    0.02061672863816
H        10.40261082033327   11.11365553665089    0.34631503014650

