39
CSD_code = XUXCOK | q = 0 | S = 0 | Stoichiometry = C14H20Cl2N2Ti | MND = 9
Ti        5.13905113909889    9.85746566361710    2.11390201338437
Cl        5.25648465540437   10.24083662021973   -0.03799699165923
Cl        3.66221830318363    8.25961790363470    1.77355213343348
N         4.69687280329139   11.72690336829429    2.44884904753612
N         3.79770392554254   10.89429056404466    3.01260955188108
C         7.00521547005767   10.38358135838853    3.44255241496550
C         7.44811618787129    9.82987293972442    2.22197844581970
C         6.98741733327188    8.49420393824525    2.15690611676093
C         6.25830978284281    8.22771486648621    3.33571582711443
C         6.25278987621036    9.40066812700059    4.12395862538561
C         4.09300779986073   12.87951485280504    2.14831457512329
C         2.75847688674015   12.79104769533142    2.55760864049831
C         2.60627686972349   11.50399769427376    3.07194612166164
C         4.81923513723818   14.04377346693772    1.54911826123317
C         6.13936479115699   13.59743256620032    0.92410353384973
C         5.05824936348395   15.10558527085188    2.62877640327336
C         1.38839494660370   10.79138466887007    3.56787802175448
C         0.59880464423059   10.28636175974644    2.35463121167518
C         0.52747618410432   11.69064160389286    4.45285925436505
H         7.27717132102381   11.35455469631587    3.83579138509382
H         8.11824819522668   10.30354736193410    1.51560373632789
H         7.24133369393237    7.77138872600518    1.38976221145646
H         5.85434214371770    7.26660197535623    3.62851926483412
H         5.85969174747303    9.48603009121153    5.13023387003672
H         2.00506378307619   13.54691574314488    2.45871491200238
H         4.17952845465356   14.47702275907189    0.77152935464858
H         6.63441333760837   14.44185633964509    0.45040897777827
H         5.96375681675453   12.82680427451868    0.17554078453072
H         6.79742489044503   13.19007683858197    1.69076059612923
H         5.56420014450543   15.96792647085944    2.20149980719194
H         5.67844662147990   14.69711126037025    3.42394541395800
H         4.11616136801331   15.43403321923240    3.06082866192960
H         1.72785244544729    9.92269920165450    4.14605322563407
H         0.25320518686873   11.12445751662796    1.75287186247563
H        -0.26331760630563    9.70960775682159    2.68012446329748
H         1.23233145101638    9.65062338716781    1.73766840559673
H        -0.32021013121650   11.13083553769235    4.84034380716865
H         0.14837488818027   12.53550707281913    3.88329108957059
H         1.10561514815941   12.07010484247271    5.29234496234127

