61
CSD_code = XUXSEQ | q = 0 | S = 0 | Stoichiometry = C27H28Cl2N2ORu | MND = 5
Ru       22.92006156212372    8.45602617368115    4.67387109471166
Cl       24.37559708213463    7.10136301105015    3.50366290845660
Cl       21.80841589172543    9.49197444166542    6.43184895625137
O        24.63071534913390    9.76134117837401    5.22781818388922
N        20.44725734673333    7.00973243343460    4.93899788939086
N        20.60479981907827    7.88719093432472    2.93627229412991
C        21.25282670264632    7.66780366083544    4.09408368293911
C        19.15955364731884    6.70322987733963    4.34009955191873
H        18.32737294294031    6.93889194473117    5.00147268131286
H        19.11436014040663    5.63602787386299    4.08416009012304
C        19.18020002361273    7.59117232871611    3.09481425786993
H        18.64672611529658    8.53411255506108    3.26985084502071
H        18.74154242505556    7.09877160177140    2.23318941367371
C        20.95120346646317    6.48177005328314    6.14691019366693
C        22.20227084761369    5.85912618917999    6.10232863088470
H        22.69521585053779    5.71728619144600    5.14438042262606
C        22.78199564693073    5.36439625927301    7.25719473700247
H        23.74947426577539    4.88738360831321    7.20943301649909
C        22.11137838099451    5.47702086709088    8.46249716938322
H        22.55393685808947    5.09336247844259    9.36951010699367
C        20.87659090601403    6.09817315015490    8.50492903746383
H        20.36860578340087    6.20656764584811    9.45242849420765
C        20.27940119271245    6.62281912146426    7.36561707013198
C        18.99167112629701    7.37821978770519    7.48253519819820
H        19.03806688068141    8.28161569379894    6.87745982992840
H        18.82642572406015    7.66891577026481    8.51675572020068
H        18.14238115300767    6.77149113637526    7.16537070416567
C        21.14895805884972    8.60084209060702    1.85929474775718
C        20.79917369270963    8.27950777397928    0.54148796702958
C        21.29943724008242    9.04758440731280   -0.50239037365580
H        21.01450320563494    8.80038530976775   -1.51451056067709
C        22.19165694441453   10.07947606077115   -0.27494602330449
H        22.58778419041075   10.64785089536342   -1.10269077388894
C        22.61636960392853   10.33710174855530    1.00739635792163
H        23.38779114094647   11.07154618593760    1.17822394472819
C        22.10962185456291    9.62267935495566    2.10636064522417
C        19.98154505231131    7.07319362042192    0.17280144402614
H        18.91282146223701    7.29137769986215    0.16854217787554
H        20.18428094280268    6.24491307225796    0.84733040938956
H        20.24974530931864    6.75759483490974   -0.83317851166135
C        22.69570740329091    9.84024190709584    3.39619954135990
C        23.34318909717281   11.06828230651972    3.77733987125793
C        22.96164975659330   12.32862307575662    3.30128768339917
H        22.12953858272596   12.39537161008847    2.61632124822471
C        23.60198539346006   13.47470007499809    3.72646508605999
H        23.28645203494170   14.43758430134024    3.35458416811833
C        24.64731050268902   13.38866994941091    4.63102260027750
H        25.16090541525623   14.28164985796387    4.95388873547434
C        25.03360069744223   12.16160364137356    5.14728648919714
H        25.83629732496198   12.12681726657755    5.86720460230978
C        24.37355330247473   11.00668514571013    4.75634869606662
C        25.61378647492836    9.50722571455261    6.22758722533911
H        25.60124631347124   10.32054341803171    6.96671502832377
C        25.18743719138616    8.20466471585104    6.89877761202505
H        24.19659278295303    8.32176409227979    7.34597805899925
H        25.88917582712558    7.92829469691018    7.68116827084192
H        25.16199080523306    7.40448218461058    6.15203336235508
C        26.98631230509436    9.37810134562449    5.57044465565361
H        26.95067351414134    8.58617566594939    4.82393713773953
H        27.73794055758748    9.13104155213320    6.31507497305693
H        27.27021888782510   10.30463845468347    5.07592132177522

