67
CSD_code = YABNUK | q = 0 | S = 0 | Stoichiometry = C30H30Cl2NiO2P2 | MND = 4
Ni        6.48653440341321    0.00041830647513    9.30626363998995
Cl        4.63435993799269    1.00520318054238    9.00036418672392
P         5.29677929063201   -1.53879461672175   10.22285542355486
O         5.96111555888420   -1.42958433188276    7.36351910334702
C         4.25451648517022   -2.20814190878674    8.83251418815101
C         5.05040005326703   -2.20043957294391    7.55462183040675
C         4.62337237842717   -3.20604682023288    6.51867000898277
C         4.03875988677529   -1.20214121070813   11.49016804260982
C         3.09715390068400   -2.16731469724187   11.83319482976467
C         2.15765061512820   -1.89773964943662   12.81028621109881
C         2.15657133273314   -0.67028494630624   13.45459906792324
C         3.10160618311371    0.28613988405440   13.12497947426244
C         4.04325231867897    0.02177396951342   12.14578477405180
C         6.05982977675090   -3.06671215479733   10.85457223532096
C         6.60886779443501   -3.99165921065813    9.97227529862083
C         7.24791672625061   -5.11904555508606   10.45221993661927
C         7.35729053418442   -5.32622733076448   11.81753126764059
C         6.83940509909204   -4.39399062858734   12.70120251640959
C         6.20098038735704   -3.26424737710336   12.22386464763095
H         3.44477516878823   -1.47952222381888    8.71359945148723
H         3.83249218474614   -3.19080528465204    9.05126955216402
H         3.10649301933991   -3.13225697183427   11.34497420399348
H         1.42440660688645   -2.64693590106648   13.07277143367873
H         1.41904897774791   -0.46403265934355   14.21668529119370
H         3.10399893716546    1.24012305292330   13.63160209303599
H         4.78496808676962    0.75934526585244   11.87567460885405
H         6.55197658466886   -3.81575713678010    8.90677964006443
H         7.67005311219587   -5.83413166223585    9.76095301906300
H         7.85797442006990   -6.20706081715490   12.19196349111233
H         6.93975980821945   -4.54439625563685   13.76639624886531
H         5.80822901014865   -2.52806608315666   12.91152284720281
H         3.56531725906521   -3.07631753587517    6.29933565111974
H         4.76572368287118   -4.21456024997483    6.90349410079000
H         5.20457863369616   -3.08069023588765    5.60861316423614
Cl        8.33791706253081   -1.00587515017398    9.61221535056009
P         7.67745975625389    1.53877630825878    8.38999211616490
C         8.71971139769028    2.20783458706305    9.78041409357060
C         8.93510879380147    1.20230649557609    7.12233970726670
C         6.91402199101497    3.06668820936264    7.75869290568525
C         7.92406786734038    2.19988471967478   11.05845610312300
H         9.52950219374290    1.47924006935834    9.89899686769106
H         9.14164546957567    3.19054022971192    9.56174948881107
C         9.87672747544568    2.16750272492367    6.77951774053024
C         8.93040529422083   -0.02142438399624    6.46641530968455
C         6.36528807302691    3.99160481757452    8.64122013103526
C         6.77261464427865    3.26442247532580    6.38945431521209
O         7.01311398923952    1.42927161760064   11.24948217637951
C         8.35159355838911    3.20497908776385   12.09464960535808
C        10.81613050101781    1.89811167324308    5.80230540926793
H         9.86752717826629    3.13227470446577    7.26807119315189
C         9.87192921382520   -0.28559742356467    5.48706472192130
H         8.18863917442172   -0.75899031362333    6.73641270496528
C         5.72634255223246    5.11917174793583    8.16154669732576
H         6.42239373550065    3.81557842370333    9.70668061587864
C         6.13429353623614    4.39434654947248    5.91239150910414
H         7.16515168546547    2.52829245307187    5.70162005877975
H         9.40933307096866    3.07508606619085   12.31362339384432
H         8.20968545169611    4.21358468035134   11.71043061513594
H         7.77093069616674    3.07961707107062   13.00481448583135
C        10.81702351982368    0.67083909849536    5.15764409496845
H        11.54944642897680    2.64730361026053    5.54002910074087
H         9.86937165535889   -1.23941816589067    4.98014631943018
C         5.61673092180730    5.32655099773447    6.79628462903210
H         5.30445162246694    5.83424000121347    8.85298555728740
H         6.03374234731621    4.54490729887817    4.84723862821823
H        11.55444739228863    0.46474499985508    4.39542750855470
H         5.11609359426326    6.20750408843095    6.42206536551599

