66
CSD_code = YADYEH | q = 0 | S = 0 | Stoichiometry = C23H38ClHfN3 | MND = 9
Hf        0.28226024012412    0.60631731579111    4.20552698565166
Cl        2.53269081328696    1.37217711076513    3.86539919123462
N        -0.24744099030318    2.57526807285863    4.44325864543595
N        -1.55919321011300    0.58389069933207    3.19060536589314
N         0.80837414477479   -0.62411855939316    2.62021334525324
C         0.90243262376140    4.53702288897073    3.53767302884277
C        -0.14228720720595    4.67326905909117    5.82692853961018
C         0.53540602076506    3.75207082404552    4.80419861537145
C        -1.55157216666712    2.73072511356362    4.13765197199590
C        -2.25582264587267    1.71658930458897    3.55727729549723
C        -2.09461739132844   -0.40732508461841    2.49900112006373
C        -3.57793505855330   -0.43646566216472    2.21507545337442
C        -1.31030417177602   -1.42686631698046    1.93584188185228
C         0.07882510231578   -1.48574888363441    1.92153788694711
C         0.75095045685218   -2.51230424547992    0.99775307721012
C         0.20275616042585   -3.92503549396047    1.23792330106451
C         0.46150376696619   -2.08703153474959   -0.44977777951697
C         2.27148010238891   -2.56204904690980    1.19066591784086
C         0.08203222844433   -1.54830787279053    5.42616682863458
C         1.26204862646284   -0.88181771787936    5.85944963023198
C         0.87329248849863    0.31737084262842    6.52557597066335
C        -0.54984694432037    0.38439909476245    6.50933059087404
C        -1.03080344263086   -0.76339238540913    5.82496290586971
C        -0.00670048885730   -2.94904237913832    4.88999756770184
C         2.67094978514790   -1.40570699432640    5.81221914285498
C         1.82389430325604    1.20914084238316    7.27653147259427
C        -1.42934913657973    1.32873636028445    7.28139840898226
C        -2.47374724673003   -1.16507533297546    5.73254847474992
H         1.81081340531940   -0.72847809443567    2.46776133825411
H         1.53096199358219    5.38797264681978    3.78755596287618
H         0.00152827356723    4.89388490485539    3.04147405468610
H         1.44589327750368    3.88811890325292    2.85317861282182
H        -0.55999984435389    4.09391742488758    6.64617836835147
H        -0.93758068350645    5.25816464050266    5.37099442492264
H         0.59376426748632    5.36489396589850    6.22904737164004
H         1.46543005454478    3.37638470602164    5.25049784247407
H        -2.05317428060689    3.67268620927599    4.34183606688766
H        -3.29787008194266    1.84275343373867    3.29744622710672
H        -3.86581504646804   -1.38786292730614    1.77742805166959
H        -3.84398466022845    0.35688912776250    1.51612385749338
H        -4.14775435177301   -0.28654671822819    3.13106778078678
H        -1.84976515243547   -2.17208408045168    1.37433103222073
H        -0.86734258912796   -3.97994678705338    1.06360799550881
H         0.40096129105563   -4.24570688037823    2.25730442757448
H         0.68647305288537   -4.62481331770846    0.55910298791635
H        -0.60607363614975   -2.09479026068768   -0.65106552330104
H         0.94978177673386   -2.76627759080591   -1.14573215063062
H         0.83370452264866   -1.08057505089696   -0.62868802358188
H         2.53184402313501   -2.79521868679498    2.22177385675586
H         2.74456088280582   -1.62421650274282    0.90451069197091
H         2.68790962951358   -3.34289155897562    0.55740367397925
H        -0.80468921933914   -3.04089679861109    4.15472905588891
H        -0.21681314305715   -3.64794510218226    5.70345903762517
H         0.92844542425401   -3.25308632585814    4.42436779117467
H         2.73800624480036   -2.30271372024273    5.20005932034530
H         3.01044636052580   -1.66038404673894    6.81851734343794
H         3.35479745547486   -0.65859900687383    5.40829866210831
H         2.69852041066703    1.44201994441753    6.66896882280460
H         2.17238757877861    0.70796888308245    8.18289546124954
H         1.34758701822607    2.14246085041027    7.56949081393802
H        -0.83386655435776    2.05339661405352    7.83138910857644
H        -2.02537550362944    0.76925718518549    8.00521830298865
H        -2.11973118736992    1.86763106501598    6.62947492604757
H        -3.11537366219817   -0.29027588218857    5.63472766757938
H        -2.77777233314716   -1.70197142304292    6.63502819160764
H        -2.64511177634470   -1.82150976165488    4.88150172946086

