33
CSD_code = YAHSEF | q = 0 | S = 0 | Stoichiometry = C10H8Cl2N8O4Zn | MND = 4
Zn       -1.39014690616910    2.14087342250579    4.90611032116955
Cl        0.68534379028673    1.44342409938684    5.24109072635171
N         0.82988939684366    5.01937096837848    9.22787585417832
C         1.46362499281100    4.20895518929045    8.28708416167973
O         2.65149783765625    4.03703305217638    8.30498067954071
N         0.62998724519904    3.64749553660585    7.34116203006825
C        -0.69898656602136    3.88619482781583    7.38531164203046
C        -1.28976890977329    4.68760867115178    8.34912652863271
C        -0.51376267118022    5.33308570200824    9.38484868353052
O        -0.91905542056586    6.04855521240698   10.26935286475861
N        -2.63215424835435    4.68246544201085    8.06224335504747
C        -2.80387884957225    3.91777204221372    6.98226519773378
N        -1.65746309158174    3.42317066726476    6.53924756552923
H         1.45805308976954    5.42369417224291    9.91496247926789
H         0.99277857422315    2.95601907857890    6.66411271505278
H        -3.33779401476461    5.16797895574119    8.59519794821360
H        -3.74968652332474    3.71140541314404    6.52016605456017
Cl       -3.46563560561771    1.44343280780580    4.57111893842850
N        -1.12282529500845    3.42313655577574    3.27294878455322
C        -2.08129914976622    3.88616104659996    2.42688163365677
C         0.02359246228068    3.91773518708822    2.82993508839177
N        -3.41027147818579    3.64745066462048    2.47101679603404
C        -1.49051501715818    4.68759199673491    1.46308116414125
N        -0.14813035092021    4.68245239785532    1.74997374949977
H         0.96939863729628    3.71135699913601    3.29203101064550
C        -4.24390097203661    4.20889500638743    1.52507698227913
H        -3.77307196286729    2.95600294009924    3.14808650044009
C        -2.26651874503572    5.33309000879754    0.42737016300885
H         0.55750651450992    5.16798451439998    1.21703176336106
N        -3.61017045660844    5.01936872660999    0.58433303114234
O        -5.43177032067148    4.03699961075928    1.50719594488583
O        -1.86122695140026    6.04860466787265   -0.45709942205940
H        -4.23833903430276    5.42373441653611   -0.10272093579096

