53
CSD_code = YAJRUW | q = 0 | S = 0 | Stoichiometry = C26H24Cl2Ti | MND = 12
Ti        2.95294797311753    0.88562446708398    8.78574774891064
Cl        1.14760345009846    0.36020403903662    9.99436391655993
Cl        4.19059512786543   -0.47946841449095   10.05108730096698
C         2.48803241187815    1.04230150792301    6.48522929857520
C         3.79140921400631    0.47150949596545    6.58687899338072
C         3.69178207162584   -0.79621716596739    7.18679854746850
C         2.33067189836146   -1.00742055758782    7.53791771840125
C         1.59579928222325    0.11956785304937    7.10228969417883
C         4.78913087821642   -1.80814424301512    7.27139575545816
C         1.77406551141266   -2.25414049296324    8.14951394751050
C         2.08317858691076    2.23155688501521    5.74017569066935
C         0.76154586528471    2.31952288859695    5.28892014343146
C         0.30000815526225    3.41747640859164    4.59183931427837
C         1.15765430374743    4.46996487951492    4.32074666995127
C         2.47298340469898    4.39348094337207    4.73652312570474
C         2.95772689910828    3.29379465759927    5.44113962839044
C         4.39320316113782    3.32713581044054    5.79335129905951
C         5.27664820373183    3.57139800086255    4.74424114100916
C         6.64083614523587    3.65641288950844    4.94564397390979
C         7.14572736201771    3.51560553635850    6.22706495599108
C         6.28642930461260    3.27362932750987    7.27943856446305
C         4.90390717142691    3.16099515950095    7.09493754984756
C         4.06447585666099    2.88989528621576    8.25900927968737
C         4.53172348030670    2.38639301595975    9.50659349582908
C         3.48269853407729    2.45890585548843   10.45220497128243
C         2.35090490712980    3.01695755123445    9.79815830978676
C         2.69414148667609    3.23610980251825    8.45230076871635
C         1.08446827247179    3.46136036334715   10.45695005169561
C         3.56840034879943    2.12472752457243   11.90794633903561
H         4.68292052265476    0.83455788593971    6.09545479841812
H         0.51691514027061    0.20263652389925    7.15700598521858
H         4.65873933201069   -2.54952007669141    6.47979383706576
H         5.76008749512309   -1.33185016783696    7.14545563294729
H         4.77501495896150   -2.32907540277035    8.22753688725544
H         1.86217200318835   -3.08690310656842    7.44884092469512
H         2.32549557033295   -2.51384840609114    9.05576876195151
H         0.72460458645809   -2.11981039629394    8.40710440664159
H         0.08555976932780    1.49961197892849    5.47697559110004
H        -0.72711535074855    3.45119356811777    4.26046837611525
H         0.80791471590152    5.33953853915463    3.78513919209673
H         3.14601050714283    5.21417540833663    4.53280095553483
H         4.87687408898448    3.67438189980360    3.74545276247208
H         7.30194051203851    3.83677582231040    4.11152198176585
H         8.20745624862168    3.59472903454015    6.40706475357381
H         6.69362330744315    3.18403725422625    8.27479461496611
H         5.54435927250805    2.08084378081877    9.74132802042779
H         2.07338549151888    3.78176048931790    7.75585255959898
H         1.26658744089736    4.39232115502463   10.99870854301771
H         0.30755089274871    3.63733368684223    9.71469437641241
H         0.72736785060111    2.71985265031428   11.16988880518496
H         3.50137644071803    3.03568176957370   12.50614213093318
H         2.74570354241734    1.46746959194225   12.19786844643106
H         4.50915639277611    1.62426724192042   12.13212946202611

