27
CSD_code = YARBOL | q = 0 | S = 0 | Stoichiometry = C11H8ClN2O4Re | MND = 6
Re        5.45333974501892    6.61953470963760    2.58934067669230
Cl        7.26618400045145    5.29245274179064    3.34643106894190
O         5.22355191888484    7.79647262606935    5.43516038969463
O         7.53379766662624    8.71342822536144    1.68590325162484
O         2.99260269553687    8.07394955390295    1.41279367528705
O         4.13297972277137    2.65593805640955    2.66031660472393
N         5.73678076502944    5.32403861487843    0.86106212424696
N         4.36395131040430    4.83720790314111    3.08756282861791
C         5.28364012904942    7.42848212767676    4.35417931374585
C         6.71548252119609    7.98995377278157    2.02622666471639
C         3.91258853429152    7.55171534210387    1.86062848597841
C         6.43563521843538    5.58362588518593   -0.23705730336668
H         6.71557700799193    6.61700773086761   -0.39451679424066
C         6.80555532073410    4.60322215953818   -1.14363449921672
H         7.38412395348667    4.87011835997338   -2.01332979126118
C         6.43178340951863    3.28711484184742   -0.90921320735937
H         6.71419655965563    2.50090917568006   -1.59211513687649
C         5.69176721626556    3.00410053613826    0.22398924479932
H         5.37151716464385    2.00394563868994    0.46844749819038
C         5.36881646155035    4.04878013766638    1.08281524239499
C         4.61587343999255    3.85165758181756    2.30826796604984
C         3.47037880496865    2.83554645007751    3.91722918466314
H         3.96165912286327    2.19862155695596    4.65659174080103
H         2.43010065168692    2.52169598129857    3.80136711408259
C         3.62063296726675    4.34248033692364    4.22419002976514
H         2.66364487417441    4.86720476987778    4.29507904632686
H         4.18753881750504    4.53389518370888    5.13968458097776

