45
CSD_code = YATWEX | q = 0 | S = 0 | Stoichiometry = C22H18Cl2N2Zn | MND = 4
Zn       -0.00009125948133    0.00043079527751    8.07984709368387
N         1.30821359091192   -1.00114667408345    6.64274160867229
C         1.41381010217955   -2.31794224307949    6.77666416630947
H         1.01846160306611   -2.72803022431348    7.69515781512401
C         1.97450366419249   -3.12821724272805    5.80642768811617
H         2.04353228764777   -4.19176376478763    5.96576142252604
C         2.43302573419284   -2.54281507822163    4.63637270863121
H         2.87310194006241   -3.14148056451483    3.85262160847963
C         2.31930424391056   -1.17301787882941    4.49406075937557
H         2.67533785837567   -0.67111202206694    3.60760094866589
C         1.75683190255793   -0.42274170593860    5.52533568928418
C         1.65034474984530    1.03849886113634    5.41705263644250
C         2.11552094766731    1.84991286530080    6.44777058422871
H         2.59207939041693    1.40441405872571    7.30639193571201
C         1.99944761330617    3.22513998473188    6.35621034079212
H         2.35391787095452    3.84097063893902    7.16738211643355
C         1.42208728531365    3.80094774848291    5.23784746745071
H         1.32430842567995    4.87410359645133    5.16985068032165
C         0.97840612040462    2.99971651012015    4.19761334485345
H         0.53733665089283    3.44685509398396    3.31858452433115
C         1.09813389105078    1.62567765638985    4.28116974070131
H         0.74287501570662    1.00146069754382    3.47362921249951
Cl        0.65174910951029    1.72798591963838    9.30332429495227
N        -1.30841331970183    1.00079664201782    6.64279697052662
C        -1.41411729219104    2.31754703838981    6.77700422869626
H        -1.01888392896326    2.72744872808474    7.69562571746674
C        -1.97470773066032    3.12803516815268    5.80692101880779
H        -2.04375430681059    4.19152376884072    5.96661687791475
C        -2.43300460954716    2.54287445491291    4.63667996238979
H        -2.87290765091000    3.14172659763751    3.85298379034449
C        -2.31925600668827    1.17309267109842    4.49408817564368
H        -2.67517376838488    0.67142183640390    3.60745164127317
C        -1.75692167481064    0.42256654976207    5.52524376460976
C        -1.65033807043686   -1.03867146818683    5.41683497290309
C        -2.11509791976218   -1.85013070826463    6.44772095210631
H        -2.59152855628614   -1.40469311397014    7.30643655067869
C        -1.99875231545421   -3.22534103611847    6.35626169490295
H        -2.35288481362910   -3.84116263625217    7.16759255505152
C        -1.42156438823143   -3.80113613478186    5.23779975995987
H        -1.32353446102567   -4.87427714532888    5.16988794054569
C        -0.97837289690231   -2.99988760858764    4.19737191982946
H        -0.53749091584607   -3.44701800546988    3.31824240261685
C        -1.09834341226454   -1.62585716578196    4.28084873805522
H        -0.74341559488801   -1.00167864008208    3.47313277842572
Cl       -0.65377510499026   -1.72502682069110    9.30473919966557

