51
CSD_code = YAVLAL | q = 0 | S = 0 | Stoichiometry = C18H26BrN3NiO2 | MND = 4
Br      -10.48973767997753   -1.78105448960997   -1.33781961209925
Ni       -9.29424711930828   -2.46785112821332   -3.10897716454980
O       -11.44609555087283   -5.66557084905147   -4.30326359807104
O        -6.05724701732841   -0.05888976916622   -3.24137620830879
N       -10.63012331523123   -3.71479680196266   -3.63606865850372
N        -8.23228873254285   -3.20512026198255   -4.48389328036131
N        -7.84328708289164   -1.28365889040784   -2.76633197050697
C       -12.04599608131243   -3.43835648514385   -3.85605669240639
H       -12.48740682459959   -3.00246801817647   -2.95466178337278
C       -12.60605511466554   -4.84691143857927   -4.14051749144892
H       -13.18895525284982   -5.24195385872130   -3.30322699382328
H       -13.20414407951511   -4.90038539163777   -5.05168133987664
C       -10.39086537754505   -4.92693994108062   -3.96964235508941
C        -9.03145126243343   -5.51677934469257   -4.08967669962548
H        -9.08892165016325   -6.46215232613742   -4.62788019350042
H        -8.62581720525807   -5.70749274011579   -3.08854041803215
C        -8.17639276389500   -4.51853531092606   -4.82256133172833
C        -7.29352492249034   -4.68867524317782   -5.86499803855428
H        -7.04171186893958   -5.61664158790018   -6.34091883522590
C        -6.77674150468392   -3.41460548040299   -6.16587184577515
H        -6.06078414496555   -3.17038952853997   -6.92667252579479
C        -7.38367315163779   -2.53174131390730   -5.30155014729413
C        -7.20990589072035   -1.04751737563266   -5.12944133595998
H        -6.31790918499662   -0.69153767947648   -5.64340041422980
H        -8.08056386441170   -0.50660170585209   -5.51969424111185
C        -7.08002888764943   -0.79144584999055   -3.66940737390932
C        -6.11828249216501   -0.02642032426667   -1.81348315077139
H        -6.29721505087981    1.00575673159160   -1.50054322369828
H        -5.15552073757865   -0.35739291901333   -1.42132287236457
C        -7.28800833381571   -0.96355962158862   -1.45412998663119
H        -8.04470865818723   -0.44573974140519   -0.85548466213383
C        -6.90343023108445   -2.26365077157575   -0.71853283036277
H        -7.81592845920943   -2.87715947319666   -0.69342952998645
C        -5.82661051324157   -3.06199442556777   -1.45096247523462
H        -6.12632126532238   -3.27180432875920   -2.47704956825832
H        -5.67216671061932   -4.01273189203737   -0.94603239199289
H        -4.87444037389593   -2.53525325385786   -1.46796882422500
C        -6.49475534925387   -1.95331259118066    0.71729316919627
H        -5.61371833380596   -1.31504701459436    0.74323782068383
H        -6.26484764097531   -2.87465696917297    1.24605917435904
H        -7.30365559413915   -1.45036234615097    1.24129086736026
C       -12.22240452269094   -2.44566897045759   -5.02728366507042
H       -13.29861654746757   -2.37392880960488   -5.22237430015229
C       -11.51081272823171   -2.92115075126511   -6.29369953782223
H       -10.43221267405260   -2.93543835350795   -6.14350226262264
H       -11.72869138121525   -2.24286842976621   -7.11517951667032
H       -11.82879222383516   -3.91870886052517   -6.58848049085573
C       -11.69824346903612   -1.07044169247406   -4.62017775189049
H       -12.24878729090776   -0.67894104836712   -3.76761813118475
H       -11.78181041252304   -0.36988093515252   -5.44743763219358
H       -10.62924347497973   -1.14327039761749   -4.34275767831757

