41
CSD_code = YEFLAY | q = 0 | S = 0 | Stoichiometry = C14H20I3N3Pd | MND = 4
Pd        3.51171929194445    2.01113168727355    1.47160446240674
I         3.69296931447973   -0.60388779683805    1.01996160101881
I         3.77464887500345    4.53017995643892    2.27971182546305
I         3.26320859919187    2.65460625603943   -1.06236223944455
C         2.09734402098609    0.91234981861100    4.44853402671813
H         1.78805455772793    0.96624164431528    5.49490891702339
H         1.87404666089758   -0.09111035631487    4.06023963914843
C         4.17186299483325    1.52077025205400    3.26898744146612
N         5.47814435543094    1.53601231131504    3.55860189600244
C         4.44010863654298    0.90920234497229    5.38273988093490
H         4.14578114080148    0.59244031707440    6.36155750682748
N         3.52717932593506    1.13548886404832    4.38101740179133
C         5.66359558679177    1.16212768157864    4.86372753682214
H         6.63367292949231    1.11261124700837    5.31229267702219
N         0.38586701063293    2.62321347840797    1.55235528645730
C         1.37744390249612    1.96133790423650    3.63559697344943
C         7.36615493472906    0.59787337446700    2.28966755566073
H         6.70479224534417   -0.26752314705399    2.19433614665410
H         8.05243821306490    0.40727360832865    3.11809574242665
C         8.15144765718927    0.75543682178619    0.98852508962886
H         8.66379755585570   -0.18641973819826    0.78310380649429
H         7.45257057327624    0.93212273051609    0.16715023657958
C         9.17372571688715    1.88431724549922    1.04024750072123
H         8.68891253565379    2.85441607714908    1.11992296549363
H         9.77397842983864    1.88492410961630    0.13396363161370
H         9.84076005436962    1.75851003042996    1.89123244367295
C         1.16095100010438    1.73666477120317    2.25057939141697
H         1.14366506001094    0.71507521741206    1.86634134603442
C         0.11544462277001    3.84101138699142    2.07029952981303
H        -0.37132474534699    4.54788744106917    1.41643032667829
C         1.02292606650707    3.17221594818510    4.18208279949230
H         1.21595971999987    3.38610978577304    5.22112782993558
C         0.42328692426353    4.14658031187590    3.36475638909555
H         0.19929177735232    5.12345553118466    3.75665744910863
C         6.51526102778482    1.83262700273916    2.59272053042914
H         7.12809722526838    2.65656944482481    2.96961030282020
H         6.02110362226794    2.16488006401177    1.65484396615161
C        -0.08729505201099    2.27494701263500    0.24031690101776
H        -0.96057803427688    2.86989708896829   -0.01412838204027
H        -0.33826640407071    1.21552997902193    0.19805252390049
H         0.69675206999116    2.46410229131647   -0.51301085590727

