31
CSD_code = YEFYEQ | q = -1 | S = 0 | Stoichiometry = C8H16I4LaO2(1-) | MND = 6
La        4.30819598302279   -0.00116502657203   14.37602419637540
I         4.40829984808004    0.07661806100253   11.32403997372293
I         4.22357441603048   -3.05208019936517   14.28686790010262
O         1.60383302455118    0.02576837368851   14.83872107556162
C         0.93152310825743   -1.18348080642083   15.23293875101146
H         1.57880769221730   -1.74437316402471   15.91973100323342
H         0.75476480910826   -1.78879364550414   14.33867026522395
C        -0.35164457785253   -0.76256697419308   15.94106067372358
H        -0.66521999252999   -1.49712436130715   16.67876021477775
H        -1.15689822182984   -0.61250075369332   15.21952183400772
C         0.06840570130383    0.56936916270804   16.55536099853553
H        -0.76786650907715    1.22048413308088   16.79840986992335
H         0.66663525267698    0.39946486730313   17.45124509434106
C         0.94263758832512    1.14426498317552   15.44833674442876
H         0.33589897175887    1.65032115845380   14.68453071641937
H         1.69316792255877    1.84552270997108   15.82255611572875
I         4.19274265904501   -0.07837344213245   17.42754138895582
I         4.39371093528560    3.04989480077065   14.46352171681178
O         7.01232797732035   -0.02752691660917   13.90031941655822
C         7.68043611299049    1.18242295398376   13.50139035767998
H         7.02602485825718    1.74489738581861   12.82280160362113
H         7.86687292910163    1.78574543316342   14.39495030441863
C         8.95550695194708    0.76280497968930   12.77812473945538
H         9.26213826913033    1.49975577655348   12.03990541823900
H         9.76820578147967    0.60894035437859   13.49052155023213
C         8.52699559783729   -0.56631661543730   12.16359007723208
H         9.35960520672316   -1.21742823203696   11.90808784193648
H         7.91833624179183   -0.39225935245511   11.27549377119024
C         7.66514180768989   -1.14453098436538   13.27857776126254
H         8.28009844511213   -1.65413732554663   14.03342050903042
H         6.90964120968739   -1.84361733407423   12.91037811625908

