55
CSD_code = YEHVOX | q = 0 | S = 0 | Stoichiometry = C22H28Cl2N2Pd | MND = 4
C        12.24797448691665    5.46079800418524    7.16248506322979
H        12.72557645864988    4.47331477200349    7.19446528595386
H        12.87645358571426    6.14011392100611    6.57183318466807
C        12.07720281342227    5.98142740893570    8.59473158152922
H        11.73098704032489    7.02181553731590    8.55477732651704
H        13.02896682911497    5.94959490356563    9.14063042275207
C        11.12278839816678    4.92641062027668   10.49833786431397
H        10.32803439846956    4.29386441625750   10.89438607118010
C        12.16311355041933    5.37958742792001   11.43259781928996
C        12.28838417494272    6.72069508115210   11.79812473941683
C        13.28564149546617    7.08096966632780   12.69557356401652
H        13.37954072113476    8.11956119426123   12.97929188589620
C        14.15087758228614    6.14379705776995   13.23553523157067
C        13.99442656149077    4.80910640193798   12.87697475734928
H        14.65414009669240    4.06665920305712   13.30270741356449
C        13.00853821874993    4.41121144471502   11.99272717831589
C        11.34716222659778    7.77048487594740   11.28463734418225
H        10.47680695869948    7.32944269699004   10.80350853022201
H        11.85434597687073    8.42362502809743   10.57325077603142
H        11.00324511498289    8.39215036649774   12.10921043765277
C        15.21522164871455    6.54413273342574   14.20967462872352
H        15.38547557718942    7.61736978206740   14.18291030150413
H        16.15001905349622    6.03177478009698   13.99119254147274
H        14.91434583225980    6.27091843483193   15.22112041984778
C        12.84460962901495    2.97267180351570   11.60855758824614
H        13.60616156790374    2.35774971706644   12.08102974669927
H        12.91410518803714    2.84599393237694   10.52852601488930
H        11.86454845298973    2.60939214367657   11.91670905714182
C        10.69777250739049    5.61794164909043    5.36660807668392
H         9.66916171113049    5.49171791843086    5.02908001558289
C        11.67306829609438    6.13520169697350    4.39437699861608
C        11.52518734969543    7.45901791017443    3.95729335181666
C        12.42114572447063    7.96632139788839    3.03452818336525
H        12.31673897047816    8.98921583158769    2.70188909020482
C        13.45049621585703    7.18534227455966    2.51886321689059
C        13.56423641524212    5.87239541144494    2.94460888561431
H        14.34731402713699    5.24619163011672    2.54136114018965
C        12.68884088233450    5.33037403764183    3.87767153772546
C        10.41628290198430    8.30184398746822    4.50928569296719
H        10.47997303053087    9.31938891561254    4.13244080123903
H        10.45060624029503    8.32974907436659    5.59818605732428
H         9.45005046076005    7.88628006333380    4.22404732629750
C        14.39587654205936    7.76066311597994    1.51008634114678
H        15.20033018203354    7.06487062091928    1.28660651894906
H        14.82723859139874    8.69054114096897    1.87758140305624
H        13.86521771779876    7.98426840039186    0.58504455607361
C        12.83139847156901    3.89116777242711    4.27690826250438
H        11.93845695866210    3.52394033328723    4.77810129914853
H        13.68687654929900    3.76313170305208    4.94148228569474
H        13.00772736355799    3.27775187050146    3.39549801212483
N        10.92881026942966    5.30840975368205    6.57946350544058
N        11.05926492707655    5.18379299738910    9.25269158766398
Cl        8.13113331466729    4.05986693390836    6.40110216995470
Cl        8.29296055195909    3.85078974588751    9.55206996445870
Pd        9.62544018815763    4.61199045766276    7.94661694307088

