27
CSD_code = YEQSIX | q = 0 | S = 0 | Stoichiometry = C10H10Cl2N4Pt | MND = 4
Pt        4.91987422258929   10.96689953397525   11.94957017450937
Cl        4.85066918615239   10.67995543237747    9.74176266950297
Cl        5.69052203517364   13.03034363541609   11.62973319917970
N         4.93540182988772   11.08822193285385   13.88637727855390
N         5.31299142210293   12.13018577126874   14.58075002634101
N         4.47308867431145    9.88706641793374   15.86441229409945
N         4.22134816399714    9.11267074171550   12.37249890974066
C         5.29171491333408   12.10339703868554   15.89524042379561
C         4.85825455245242   10.93474967068852   16.57314891333414
C         4.51553561303715    9.97910084432986   14.54283516896312
C         4.10977457968217    8.87462439364239   13.69711807252473
C         3.64075270873078    7.66229412580388   14.19520149636052
H         3.57383861595052    7.53516939417337   15.26335105039531
C         3.27893427996961    6.67245651490055   13.30215010149535
H         2.91057431890837    5.72220303653656   13.65589860129777
C         3.39951207447611    6.92664896593046   11.93887410545508
H         3.12794219700347    6.17990789055498   11.21054941666428
C         3.87307806263820    8.15442800681082   11.51591204385755
H         3.98581457359861    8.40049451215330   10.46760518851764
C         5.73838587798797   13.33226096942200   16.60109789460450
H         5.98306659208278   14.09249336535854   15.86538692231312
H         6.61655502768938   13.11983789388840   17.20916287815921
H         4.95387369293297   13.69802001601633   17.26137680683945
C         4.81381618857406   10.83238446964164   18.05489150785172
H         4.11716651802773   11.56473281109577   18.46122569740154
H         5.79598818010873   11.03814096873787   18.47749407702379
H         4.49472589860023    9.83451164608859   18.34067508121845

