68
CSD_code = YIRQIC | q = 0 | S = 0 | Stoichiometry = C34H26BrN3O2PRe | MND = 6
Re        6.91052978115141   11.66393038576033    7.47769705315846
Br        9.52834765575489   11.29925143080495    7.67885951971830
C         7.09301724877597   13.47861098232315    8.14656094932219
O         7.20926739227505   14.53295240327698    8.59064744443519
C         7.07146809750099   12.37069185619514    5.68420759048336
O         7.20189728464338   12.84744877757151    4.63726876987281
N         6.78369123503238    8.68218248300928    6.14848862140589
C         6.91347006381685    8.96242041454001    4.77124544784212
C         7.92610500091836    9.80509385344037    4.33185242103719
H         8.61699143606402   10.23494841089059    5.04105902234087
C         8.04590964399422   10.07361348493296    2.98042160812568
H         8.82521515963217   10.73676943990116    2.63981182929215
C         7.17661948064421    9.49166712310516    2.07305359822378
H         7.27496767746673    9.70191846711219    1.01872719645627
C         6.18310045467898    8.63365613802571    2.51550990278772
H         5.50877591706507    8.17194261051732    1.80922155724254
C         6.04507374285052    8.36706329321624    3.86526291739842
H         5.25782823197944    7.71550097461482    4.21741331640201
C         6.81340533247486    9.58728740374061    7.14628864520704
N         6.75265610328210    8.84423055555981    8.29478331150678
N         6.90970832797237   10.80483878329736    9.46818743441442
C         6.84819759342464    9.46578408208917    9.52957929026987
C         6.89981437747844    8.76284417281668   10.72717172316727
H         6.84583573317882    7.68683203684702   10.73267938200711
C         7.03742888519661    9.47204496846396   11.90425299195113
H         7.08659003144449    8.95440439029892   12.84941669173318
C         7.12389448880780   10.85601546700294   11.84264668510131
H         7.24774491124416   11.44827961125670   12.73423682281369
C         7.05394372688716   11.47295688044942   10.61025445710174
H         7.12236633825191   12.54947422216725   10.52905504488837
C         6.66774676263749    7.50235522881369    8.00045831549187
H         6.60856054265732    6.73760786157117    8.74560209873616
C         6.67997013753925    7.40675834511587    6.65542512459497
H         6.65338142107695    6.54499766665215    6.02057487089817
P         4.49183524532483   11.65062219684395    7.55310820501974
C         3.53793237472009   10.93046227198417    6.17209913899133
C         4.11562383590312   10.87127032554279    4.91075438936131
H         5.14070449885647   11.19039633115689    4.78605342867139
C         3.38355578652871   10.40660178938181    3.83217572254612
H         3.84066355678453   10.36629668330034    2.85503277964441
C         2.07304209038806    9.99754557537393    4.00972271525670
H         1.50065286368233    9.63173969968076    3.17004876050211
C         1.49006830534103   10.06330147464122    5.26620905197057
H         0.46511754323938    9.75044553527946    5.40404997052272
C         2.21359916447692   10.53581684536031    6.34439413512641
H         1.75245993757232   10.59392438263432    7.32074010126111
C         3.60591075854967   13.23779714368172    7.68224053157666
C         4.14731664649842   14.31470085735171    6.98716382815852
H         5.08245649482071   14.17841352975713    6.45748481699887
C         3.50076804267715   15.53639139821326    6.98768800186043
H         3.92765225128399   16.37091838091053    6.45227561049848
C         2.30968527093998   15.68799584397629    7.67942225898787
H         1.80623585584740   16.64333372271980    7.68710845199104
C         1.76226929135653   14.61399692766075    8.36198651376362
H         0.83154954160188   14.73138788483932    8.89811619891049
C         2.40160601674631   13.38729605216210    8.36127337409572
H         1.96672725505419   12.55446754782474    8.89671072119699
C         3.92623860892561   10.68656337704851    8.98586020993499
C         3.72639294598155    9.31282379953849    8.87250134676803
H         3.75451580856665    8.84767641313100    7.89472838339936
C         3.48569402924733    8.54956838009995   10.00012800695188
H         3.32344095168640    7.48537161675543    9.90396392085382
C         3.45956273627613    9.14574621038110   11.25062874678439
H         3.27478287610472    8.54764933029017   12.13048233475562
C         3.67757156768635   10.50931820029940   11.37259690571898
H         3.66689187504731   10.97313030759187   12.34813112192898
C         3.92062538082870   11.27593201259045   10.24878925740084
H         4.11093037376561   12.33772374637662   10.33820940307053

