45
CSD_code = YIZKEZ | q = 1 | S = 0 | Stoichiometry = C21H17ClN4PPd(1+) | MND = 4
Pd        6.08437670844148    3.13857057615601   -3.42301515482942
Cl        4.27198132949750    2.71304716140336   -2.24770158363696
P         5.85486698282253    1.49309623721398   -4.91100797937298
N         6.78861441965230    4.74338219003875   -2.28811483991966
N         7.67753036196253    3.59503413223491   -4.44020316957561
N         9.10038017589899    3.19057303173571   -6.26546391561166
N         7.19734547448302    1.90157155045815   -5.91339529183475
H         7.49131363827511    1.34756023186347   -6.71075039235138
C         6.36374755223841   -0.05982716580820   -4.12042048504838
C         6.88732070507452    0.02912710212699   -2.83016423365541
H         6.93254582738698    1.00766626168564   -2.32752616296044
C         7.31763356317243   -1.11530555690758   -2.18439447685048
H         7.71555138428994   -1.05547887859462   -1.18318511862880
C         7.22684989915171   -2.34367023781075   -2.82282665946338
H         7.55710023133895   -3.23653782300095   -2.31510472515123
C         6.70674944878597   -2.43221896065133   -4.10483935088546
H         6.63459039624164   -3.39153183117379   -4.59349853776111
C         6.27255164817948   -1.29275690318065   -4.75897495007013
H         5.85458218647057   -1.35606701932659   -5.75387622381057
C         4.53769146357711    1.09281014904569   -6.06993464978969
C         4.54924160365659    1.49755790632198   -7.40143942120907
H         5.38343963037313    2.06059019580994   -7.79557930733314
C         3.47797812665711    1.17523245745440   -8.21615280909879
H         3.48424978948185    1.47688621981985   -9.25231678212901
C         2.39680250237056    0.47510153048782   -7.70379219829693
H         1.56378413856912    0.23170909836782   -8.34484213261266
C         2.37479154926332    0.09603057536772   -6.36922279401998
H         1.52516757455856   -0.43666445249483   -5.97126083269881
C         3.44105839859797    0.40676836738564   -5.54745411887819
H         3.43782380366089    0.13023147732933   -4.50117000075001
C         8.02584256525545    2.91272760848449   -5.54455458619941
C         9.85220250149565    4.20540091103975   -5.87022934593435
H        10.71949989964730    4.40411794140823   -6.48275293072324
C         9.56255379682461    4.97581129162165   -4.74982022985289
H        10.19643939938190    5.79639429993653   -4.46506181262498
C         8.42349642653697    4.63102399404984   -4.02453534684973
C         7.91538713212698    5.28549925271244   -2.80897949779437
C         8.51969558541155    6.38663636826406   -2.20947886986155
H         9.41452942914723    6.81380778969869   -2.63151811872842
C         7.95519286203849    6.92968355664104   -1.06535074840099
H         8.40945307266097    7.78489400650684   -0.58981453518878
C         6.80310237928819    6.35933670262777   -0.54629103747071
H         6.33533235572242    6.75370763960252    0.34083958871735
C         6.24974245171460    5.26225306520041   -1.19240900342008
H         5.34696962862981    4.78111794881462   -0.82981522743858

