41
CSD_code = YOSXOV | q = 0 | S = 0 | Stoichiometry = C11H21Cl2NO2RuS3 | MND = 6
C         6.49436227316591   -2.45204956079546   15.50083528660182
H         6.26593212660718   -2.23963194536477   14.46289242914050
C         6.37461504291130   -3.72856259628151   16.01780838094812
H         6.04151156484883   -4.53260446264808   15.38267071701868
C         6.67536614125272   -3.94398641756330   17.35355712254988
H         6.58621285963811   -4.92440828134811   17.79439505024506
C         7.08394287606357   -2.86282011017561   18.11854845293230
H         7.32061348408323   -2.98178307371152   19.16448292036177
C         7.18949002347752   -1.60989299196862   17.53276287712923
C         7.61494415547750   -0.41502473950601   18.32134860543702
H         8.64793227409220   -0.13016442222196   18.09475309312555
H         7.50060108670150   -0.56695156791287   19.39395293939241
C         5.04428298757061    0.57094324039629   18.52031551633068
H         4.70455584097897   -0.35351339109090   18.06272900115491
H         4.34103491997776    1.36216430587714   18.28426575675040
H         5.15523530642591    0.47322822956946   19.59658840995772
C         9.80215583488037   -0.82185095812466   14.95580839773113
H        10.86471756831449   -0.64070204489184   14.84604144456241
H         9.35327025217587   -1.15632492463517   14.02665249240620
H         9.62694620687947   -1.54521732381731   15.74652965002734
C         9.70771335346196    1.75779269543482   14.10438149144023
H         9.28732095368204    2.75466419221092   14.19418405319101
H         9.42841961720016    1.31051716562296   13.15726954333899
H        10.78090823058296    1.77268794093734   14.25202314490781
C         4.99495926312588    3.36487706084104   15.83623562766106
H         5.45712653424938    3.51423313199810   16.80746142188981
H         4.13314566849417    2.70976882093022   15.90953987810915
H         4.73869554353121    4.32015146158375   15.39326846677002
C         5.26949054788633    2.60821694898759   13.22874202116033
H         5.00680572694823    3.63982729915520   13.02738257421504
H         4.39488316932145    1.98087297247540   13.36510527133101
H         5.89515371503072    2.20850292608482   12.43692673235225
N         6.89750999272509   -1.41357306821608   16.23486259224640
O         9.59840900787209    1.15897806730509   16.67548958176247
O         7.32892712963301    3.47598834383785   14.63576820877313
S         6.65373689553260    1.06021506716887   17.82288449164289
S         8.98175421974248    0.74649548836495   15.41655754648467
S         6.22085977886067    2.54075757596866   14.77154358908720
Cl        7.02289325151574   -0.14232443095332   13.26692261596889
Cl        4.39512188589290    0.10811779757415   15.43948465754696
Ru        6.72414268919065    0.46328557890786   15.51792794631882

