60
CSD_code = ZAYLOC | q = 0 | S = 0 | Stoichiometry = C29H23Cl2N5Ru | MND = 6
Ru       26.64410831507912   -6.37671411972884   12.13544373046121
Cl       27.55507977807533   -4.49958212801334   13.19486529089071
Cl       25.38540547088807   -8.18217379971758   11.22218512802605
N        28.24303561539849   -6.81506357963237   11.22819205159352
N        26.50439239165385   -5.31166144260715   10.40797354091978
N        28.61310441343531   -6.10993260681100   10.20405311870153
C        24.49186024855210   -7.04419489086099   13.82598118947631
N        26.83132932679933   -7.41957014879119   13.82053965687202
N        24.83612692103728   -5.94757211957718   13.11990661571931
C        25.63717846213409   -7.82378620877553   14.30881325244516
C        27.93532820847057   -8.75707664097874   15.44999870795490
H        28.86462096606652   -9.06613793293188   15.89995031179859
C        23.92030449386128   -5.03343960571634   12.84931410633309
H        24.26706829521599   -4.13713283411777   12.35336042895232
C        22.58422178914951   -5.19421966888231   13.18318074739041
H        21.87010736253018   -4.42782541562048   12.92986554707822
C        23.16416345224252   -7.28924081651853   14.16831965663808
H        22.89152958486407   -8.19760407064188   14.67991852161259
C        27.95298068746445   -4.46781890971352    8.58122012533663
C        31.42741015521737   -8.50064239599749   11.98277715496290
H        32.48444407891675   -8.28115898241415   11.99988629233366
C        29.16387596317793   -7.79899515297533   11.59189886778045
C        27.94262905607559   -7.83153284276466   14.42353088575794
H        28.86870325487929   -7.39295065048447   14.07915138332547
C        23.09369849177118   -4.29145176619494    9.53345223272161
H        22.13493714215522   -4.75204727155476    9.34534596909569
C        27.65303571164046   -5.27221692048964    9.77469542276185
C        30.53194133465436   -7.52339302209916   11.59494207787796
H        30.86186551927081   -6.53668555008755   11.30908961734761
C        27.03510102328143   -4.33019647770293    7.54302930173537
H        26.08354601642221   -4.83811568185170    7.59240464304136
C        25.42902551527801   -4.49759699478422   10.06676216603629
C        24.46081035217067   -2.32782242084131    9.71524095320026
H        24.56583907741351   -1.25364228435623    9.67758856471421
C        28.70911161090547   -9.07258279129099   11.93954732357009
H        27.65289550783868   -9.29518847997635   11.87763966569281
C        25.56157877368757   -3.10926020427003   10.00780187915837
H        26.52146029499430   -2.66064972147196   10.21706556046076
C        29.61831947413026  -10.04617726745977   12.30628182229167
H        29.26652998395446  -11.03438489173753   12.56243454344403
C        22.19626020878184   -6.36459679743579   13.81582154441254
H        21.15839141419003   -6.54820102648517   14.04916550938686
C        25.55647495981085   -8.78137536061204   15.31503814249253
H        24.59564446748143   -9.12257716066653   15.66387811768502
C        29.50363053753150   -3.07653565802568    7.38047983334522
H        30.46564104991748   -2.58988105870942    7.31530862846883
C        26.72095512854492   -9.28173854916520   15.87096754822059
H        26.67996165417322  -10.03637446548109   16.64062143762182
C        29.19643911805026   -3.84828934284268    8.48516241572888
H        29.90520959463206   -3.97063575298378    9.28922225602063
C        24.18342582674444   -5.08501273826607    9.83707682977204
H        24.09289500936563   -6.16103560252737    9.89017343935514
C        30.97432573502293   -9.76059685515279   12.34286158354737
H        31.67874656870407  -10.52260019628670   12.64140051668711
C        23.22828546124314   -2.91366074956125    9.47065731503742
H        22.37413148410847   -2.29633367959123    9.23514291814923
C        27.35245166038051   -3.56313643879016    6.43787275200839
H        26.63739355779031   -3.46223702807549    5.63486720034585
C        28.58107077376935   -2.92803458159721    6.35775992185310
H        28.82166166900415   -2.32440824732451    5.49497403434359

