54
CSD_code = ZELGEE | q = 0 | S = 0 | Stoichiometry = C23H22Cl2IN4ORh | MND = 4
I         7.57290232271144    2.58221129000871    8.51568363597257
Rh        5.64368324472157    3.45353093553249    6.93942579493409
Cl       10.03434158088356    4.39409086257946    3.35945880638569
Cl        8.77164518948765    7.54109198724758    4.30936363861218
O         3.32159562268990    4.33576999691982    5.29839227170171
N         7.96582491512336    3.82366561754374    5.01958403272880
N         7.17294515679683    5.75108361858753    5.58758484437360
N         4.23835253265140    1.03926298777528    8.03681433082411
N         3.65876436068696    2.75601212303391    9.18493367924752
C         4.24106555984434    3.99917610159280    5.91696314648159
C         7.00167812824855    4.41735000624441    5.76393976548566
C         8.73372930870217    4.77038747453686    4.39150808740086
C         8.24071970180143    5.98564261960732    4.75662351525515
C         8.13186746172153    2.39860157428765    4.83213116062559
C         7.55209773568160    1.96261857853142    3.51209438254783
C         6.18327156476709    2.07846808708616    3.30347186591147
C         5.62450903932003    1.71156054742090    2.09400056725744
C         6.43181586254348    1.21976758326175    1.08111136635188
C         7.79481749361426    1.09357529717082    1.28558142161332
C         8.35470916735696    1.46561804471001    2.49602886169681
C         6.37421082573456    6.79175888126193    6.20217153039773
C         6.88865581308492    7.11126273058176    7.58373232284904
C         7.68151255548801    8.22432990840889    7.81986655445220
C         8.17837709185075    8.46340275162920    9.09001190390857
C         7.89583716167896    7.58791974132106   10.12417269054431
C         7.10603875831671    6.47383210388003    9.89173349156255
C         6.59986327628654    6.24303629315161    8.62705642708404
C         4.39060285176156    2.37736029799790    8.11611636466356
C         3.43171928242684    0.58572420526653    9.04461780804647
C         3.06617303873785    1.66770837556541    9.76902399563145
C         4.88942464975685    0.20114974531725    7.06803602059760
C         3.55398611646014    4.10202961646174    9.67675052943698
H         7.60032243859347    1.90529929096647    5.65511936216894
H         9.19500293118967    2.15617805104359    4.89527394881160
H         5.55770849907315    2.46332333819354    4.10253118834387
H         4.55983273978699    1.80815325942840    1.94116248817488
H         5.99796647597578    0.93391727491394    0.13442452424694
H         8.42610106918101    0.70780280992410    0.49881092176221
H         9.41919114323031    1.36698764378693    2.65127807548448
H         5.34439933128022    6.42124812215743    6.26193639263914
H         6.40999470851867    7.67269411463074    5.55827706631829
H         7.91222382417208    8.90359854365915    7.01183800081386
H         8.79503224455400    9.33174455106635    9.26943147798319
H         8.29446610878658    7.77107159598649   11.11078412335690
H         6.89811607754511    5.78127345651739   10.69328026279677
H         5.98406649756387    5.36265725032195    8.42118747911869
H         3.18876960431870   -0.44996765669364    9.16294631452523
H         2.44447427861804    1.75113641750613   10.63643675871172
H         4.19180436408918   -0.53972269469212    6.67687146534999
H         5.74284024068671   -0.31016834553732    7.52067355873402
H         5.24849969370859    0.83515277815621    6.24833065253603
H         4.36564569746514    4.31953262752781   10.37616602493200
H         2.60096998250730    4.23576981519518   10.18707087081902
H         3.61453467833667    4.79811777157189    8.83668422786256

