31
CSD_code = ZENWEX | q = 0 | S = 0 | Stoichiometry = C11H11ClN2O4PtS | MND = 4
Pt        2.85106871106782    1.68442709225447    7.72614449651794
Cl        0.60558022949467    1.68436434028774    7.86059810023446
S         2.55753445765712    1.68446546146688    5.49068794747237
C         6.80535160383278    1.68442383893134    8.99723939929158
H         7.45694769090618    1.68438959504848    8.13914263631433
O         3.74529216359983    1.68455212211284    4.66854482320330
O         4.88117746187511    1.68442282419382    7.62616558829680
O         6.51308853950867    1.68476112471932   13.69906593181456
C         1.51263296300018    0.30043129761454    4.93980447624392
H         0.56874211496715    0.35044514447331    5.47008567101482
H         1.37501944205340    0.38055501847073    3.86762849827037
H         2.03332688726939   -0.62156744673629    5.17746297036522
N         7.17107478430350    1.68447661437668   12.67101332352929
N         3.23803405284158    1.68446533499676    9.69970432931161
C         5.08956147171180    1.68451749141838   11.27867025188675
C         2.37408165890195    1.68451453184296   10.69824833494457
H         1.32240230809020    1.68445937890794   10.44468305386056
C         6.50610048321996    1.68447238295848   11.41399978547589
O         8.38937650080782    1.68440113721910   12.66516540639870
C         2.79933103242419    1.68457887373101   12.02761278095587
H         2.06353025237774    1.68461340965631   12.81534801486214
C         5.41799511710228    1.68443177682097    8.78906474272999
C         4.57267782787032    1.68447331515163    9.95752967857559
C         7.31202674608560    1.68444364189717   10.27528262219810
H         8.38167718293016    1.68442365281751   10.42752655004642
C         4.13940981892087    1.68458328807992   12.32404349809449
H         4.47529510096959    1.68464424272427   13.34837722887985
C         1.51255454362136    3.06851417441869    4.93999264570447
H         0.56867107473596    3.01837130211346    5.47027583497742
H         1.37493725292150    2.98853890067343    3.86780610264126
H         2.03320052493108    3.99050613735822    5.17778527588718

