46
CSD_code = ZEQDUU | q = 0 | S = 0 | Stoichiometry = C16H23ClO3PdS2 | MND = 4
Pd        5.92662559682676    6.37870474652030    1.45174831298688
Cl        7.32165052565351    6.45212482835027   -0.40262680413371
S         4.07993614244193    7.01685238931571    0.24178537641741
S         7.34444506165999    5.17623486892851    2.78747882560003
O         5.18465410482942   10.82206578083401    0.67997674223990
O         7.93935676065561   10.58181220384334    2.24742638752020
O         9.88308441409181    8.24926841555761    3.02819856987042
C         4.75071743964824    6.47787165798280    3.05741293037077
C         5.24752683189528    6.14379783591165    4.32025139266742
C         4.45872236482976    6.30516704315128    5.45334943602216
C         3.17253721104606    6.80120526804464    5.33979219847591
C         2.65889964010512    7.11407152242049    4.09401854401093
C         3.43852779783410    6.94966702120960    2.95516394956410
C         2.85536882220063    7.23845952503808    1.60067362806096
C         4.49152909659826    8.73646070442041   -0.14702652861720
C         5.23614467265040    9.44129053112113    0.97852763053279
C         5.90444676110134   11.64925441903810    1.55692735082611
C         7.42283859583652   11.56079975127123    1.37479557089808
C         9.34831923582520   10.51993187776721    2.23488119032813
C         9.81494182915969    9.60664963867115    3.37093021947826
C         8.64345073055018    7.63718885338010    2.73064883273328
C         8.88046331954678    6.13460897717772    2.80064617618229
C         6.63730851486412    5.58696736608516    4.44276217881664
H         4.85452447799956    6.04146309093163    6.42404986829100
H         2.56498709449887    6.93278369214919    6.22242674093939
H         1.64686563377738    7.48259339142678    4.00152009987702
H         2.45753185203134    8.25112684892696    1.52289834990634
H         2.04950955164093    6.53405643958494    1.37800623596177
H         5.11324415997771    8.69168095821119   -1.04187033720447
H         3.56810291246143    9.27004411509021   -0.37694342206683
H         6.27813255837924    9.06756785212694    1.02911168538862
H         4.74920917674584    9.25920425350450    1.95427815034018
H         5.56672679157543   12.66154073471649    1.32557661587666
H         5.66426753558878   11.41213897903538    2.60267925869264
H         7.87953984436198   12.53547681156901    1.60544213771550
H         7.65192485172158   11.31078515951270    0.32880328206827
H         9.71347410606665   10.13456721414648    1.27246464595895
H         9.76238711139154   11.52836002490214    2.38566337169674
H         9.13895397127106    9.75703547307702    4.22648941839028
H        10.83379465179784    9.87182877197761    3.66023390517676
H         7.88288527943307    7.95793271371127    3.46468523498960
H         8.29106505560735    7.90172882414257    1.71676861126795
H         9.44066379427045    5.87533688286905    3.70013089015440
H         9.43675649525310    5.80594482424907    1.92247717569401
H         6.63767375335793    4.65889684419195    5.01914305104291
H         7.31628387094043    6.29305087390611    4.92222291899060

