69
CSD_code = ZESRUK | q = 0 | S = 0 | Stoichiometry = C34H31Cl2PRu | MND = 9
Ru        2.68421464160552    0.27160097199983    1.57277679706056
P         2.93614784385662    0.74669730019176    3.78055865067072
Cl        3.89829772427307   -1.66872376917203    2.08718798594588
Cl        0.69492831316203   -0.89395061922525    2.04109273717807
C         2.22356746018268    2.31661298978037    0.49308377010569
C         3.58401972199417    2.13126732020090    0.86252635737703
C         4.34464389460987    1.06814036067815    0.31427968244251
C         3.76401054710775    0.19699041552538   -0.64196845564781
C         2.37046684212635    0.18769127032921   -0.73554271118842
C         1.59876442569769    1.23022309256838   -0.14375952270861
C         2.77219396499220    3.76551488985538   -1.63351034946994
C         4.15537080974367    3.75999567355687   -1.49288201144524
C         4.91050958864189    2.73305920770083   -2.02891567081732
C         4.29859930057939    1.69209159015742   -2.71843148298040
C         2.96159657288538    1.84433601542197   -3.07237762595781
C         2.20617442234226    2.86877002245565   -2.53397254823241
C         1.57025407262873    3.66762968261549    0.58849570221668
C         1.90694183463309    4.53876079661678   -0.68003603722712
C         4.61793583013428   -0.55582744527057   -1.61986824695144
C         4.97626719431281    0.35862496940322   -2.85088936013554
C         3.21044891558621   -0.57621548980422    4.99814173049546
C         2.31231898578829   -1.64058240899662    4.98819506782865
C         2.44386420813695   -2.66066495660252    5.91083397871919
C         3.46351911365702   -2.62319250165743    6.84882778130692
C         4.35150504736773   -1.56124047917998    6.86444797514796
C         4.22934076327447   -0.53525222667373    5.94349456119785
C         1.57539703303921    1.66241387495508    4.56600061730835
C         0.47652971354481    2.04917794490974    3.81052929601115
C        -0.56350757541256    2.74139878507012    4.40552846804990
C        -0.50697090909575    3.05085465592959    5.75406029207138
C         0.58741804315729    2.66245611046620    6.51210251291917
C         1.62648576564175    1.96633048991876    5.92413313877939
C         4.38735797603993    1.82027139692742    3.98042730272241
C         4.32382422086053    3.14815612885489    4.38260629790136
C         5.48082303276716    3.90924275980472    4.42545311182221
C         6.69613246567847    3.35307639050859    4.06341583040631
C         6.76027198045790    2.02982616439107    3.64989127088280
C         5.61024675172633    1.26609483028520    3.60126920541411
H         4.09965092933644    2.92360156266157    1.39819053870910
H         5.41750394962865    1.05193054422998    0.46812320134323
H         1.87521021558685   -0.51974365190253   -1.39134155326051
H         0.53840219925673    1.28087424673537   -0.37389692920254
H         4.63451419295174    4.51268833548279   -0.88262686065268
H         5.97235918023261    2.69256626581054   -1.83144351284330
H         2.48727078171730    1.10337463248140   -3.70000070948789
H         1.14728730031220    2.91940748077512   -2.74453475805210
H         1.91940260304157    4.18624327550577    1.48308148287237
H         0.48820998905879    3.55330799599695    0.66594300113685
H         0.97453189117474    4.82709668762670   -1.16578240200187
H         2.41943641298597    5.44595598413051   -0.35926378298951
H         4.08458543496257   -1.44026833439655   -1.96939966607835
H         5.53580106584328   -0.88698836071451   -1.13368716763491
H         6.05762766188465    0.48980466166484   -2.89273012145143
H         4.65696279841725   -0.14263635710851   -3.76476115403482
H         1.53007716948674   -1.66618222951861    4.24097308481618
H         1.75311755067396   -3.49033972954701    5.89456546327836
H         3.56924111107363   -3.42402859749700    7.56611268389336
H         5.14779733695745   -1.53121689270802    7.59440883999923
H         4.93060008481260    0.28754526460734    5.95767018492115
H         0.43585388445662    1.77440345407656    2.76385038954645
H        -1.42294436507225    3.03266245388437    3.81983717836106
H        -1.32015790786079    3.58794684554012    6.21983652306114
H         0.62589659319083    2.89832361898268    7.56563460174119
H         2.47843175255672    1.65069739278016    6.51101172679567
H         3.37424087992176    3.58282554041268    4.66240966925933
H         5.43177146724846    4.94118759740996    4.74224256434158
H         7.59457383118579    3.95165220588623    4.10002323101443
H         7.70892547544902    1.59879418165259    3.36490712970623
H         5.63160799178799    0.23345772056102    3.27224102368331

