55
CSD_code = ZIZKEA | q = 0 | S = 0 | Stoichiometry = C26H24AuBrP2S | MND = 2
Au        5.98243831350461    3.63028763884310    7.43108104595968
Br        3.78423832759470    3.08266908401241    8.12525382316635
P         8.00000879748864    2.51962283175939    2.58830984716756
P         8.05213257851651    4.06306528515151    6.67229419225378
S         9.62479521863233    3.45002622274363    2.07576811227238
C         7.34518631642487    3.11661359073881    4.21486119299575
H         7.06888658481586    4.17047745194325    4.09382174504393
H         6.45198652871680    2.55717138531129    4.50289838857105
C         8.45464753482224    2.98069632125566    5.25187254875684
H         9.42816955368666    3.25531312873328    4.82175727626259
H         8.52883409693929    1.95070653631584    5.61905157339270
C         6.63360026435701    2.71520431078885    1.40182168107193
C         5.89730168398600    3.89367874383392    1.37812990799722
H         6.08304871857918    4.66437360009757    2.11351392327482
C         4.93064320125236    4.07876415140298    0.40715570236362
H         4.35138305123531    4.98991487176706    0.39347181812381
C         4.70967124349198    3.09981615225656   -0.54835857638277
H         3.95396342670526    3.24747612650842   -1.30510012860736
C         5.46351205210909    1.93738592732007   -0.54146140048878
H         5.30005144103536    1.18068776067037   -1.29428738124145
C         6.43046623433617    1.74459670932375    0.42800275398467
H         7.02812257881435    0.84261020183446    0.43774537385849
C         8.17322470414713    0.72724713504084    2.85668804242836
C         7.06302976975190   -0.04265890825024    3.18937359412927
H         6.08724380073865    0.41821038188473    3.26351587598861
C         7.21661883127607   -1.39830244112944    3.40783661891025
H         6.35841038627231   -2.00090589131458    3.66542774396671
C         8.46939048929986   -1.98350571751033    3.29458581409721
H         8.58274982917439   -3.04375596072919    3.46467129190530
C         9.57273698611033   -1.21558978894744    2.96108474409415
H        10.54612891476642   -1.67392403667733    2.87012421734318
C         9.42636462522763    0.14298164181940    2.74165128059830
H        10.27329477605341    0.76181555852754    2.47594518851762
C         9.44190069419426    3.78110338993634    7.80096400355155
C        10.71324001162164    4.26777339471854    7.50977169464959
H        10.87858556032024    4.83621280391657    6.60464607302342
C        11.75184819410302    4.02688849940669    8.38861383016920
H        12.73935659233200    4.40416600210783    8.16824952455444
C        11.52761770962278    3.30688777990125    9.55269621371441
H        12.34289822903193    3.12461288377271   10.23670285455547
C        10.26187380654210    2.82560967624063    9.84411188943678
H        10.08758695530169    2.26949522791415   10.75293601462417
C         9.21627189531323    3.06442360165247    8.97057397353056
H         8.21948333928760    2.70179597248101    9.19026253328113
C         8.33678318429623    5.75188985120316    6.08036758630425
C         8.92904419686407    6.09683019495592    4.86982217518604
H         9.27513598598507    5.34587689731441    4.17388744037064
C         9.07642048168309    7.43408732806312    4.54272118180574
H         9.53372126544610    7.69914039005874    3.60114060307492
C         8.64246844083924    8.42324934364299    5.40939133902688
H         8.75999501304310    9.46284038466854    5.14278335236342
C         8.05248903070457    8.08137104120688    6.61670762582090
H         7.71066881320446    8.85038562119680    7.29299903092430
C         7.89502954486275    6.75030652527053    6.94797576825980
H         7.42630019569347    6.46478318506572    7.88286746000897

