50
CSD_code = ZOLNAR | q = 0 | S = 0 | Stoichiometry = C22H18Cl2N6PdSi | MND = 4
Pd        1.29708130679799    4.50469213458464    2.57861028774195
Cl        1.08705278016296    2.32681495066909    2.06986554560029
Cl       -0.63730567261370    4.50459087039827    3.70923919218894
Si        3.98529738737636    4.55439938641664    4.16146701113195
N         3.82282955227977    6.25024041563225    3.67747238166786
N         1.52550821648261    6.44690940190164    2.94408957711633
N         4.41081695071324    3.59314976072935    2.74100704649993
N         2.82751412637076    4.47635193959965    1.17957121334101
N         2.59234195272780    3.98984009138637    5.04556976451927
N         2.01929523487368    6.09612056647349    6.01854101400478
C         4.80233757825863    7.19715986066696    3.92655409848427
H         5.78030208740240    6.87939753340264    4.22478354112827
C         4.34531748652179    8.45607387599984    3.73379638338735
H         4.89452278066581    9.36851341826407    3.85236800537658
C         2.98067738921103    8.33788624063479    3.34425831231723
C         1.96634194795916    9.23079989731959    3.01556011549757
H         2.13462287854489   10.29667533341795    3.03135391681502
C         0.74034603629899    8.69348307211776    2.67118135734722
H        -0.08929499834790    9.33273172196232    2.41505860902218
C         0.56189786416450    7.31424051287804    2.63895066908743
H        -0.39635048472824    6.88206849090615    2.37232876501636
C         2.69919386390194    6.94902543320013    3.31323301482183
C         5.45013054819591    2.68721042423513    2.62395724304089
H         6.01217574929722    2.41518256370960    3.49425505960064
C         5.59365198324771    2.25720465164883    1.34719310595601
H         6.31475458159253    1.55381999668906    0.98183790370948
C         4.59028934450959    2.91478754489731    0.57570738844939
C         4.18339781421807    2.92439881788411   -0.75365640815730
H         4.67656222294244    2.31577032730658   -1.49574255126512
C         3.11028212347377    3.73535470626151   -1.08151823690737
H         2.74933004054156    3.78019527444760   -2.09661375479646
C         2.45848208746474    4.47752826618703   -0.10211817344897
H         1.60069294312594    5.09722125093618   -0.35046518673991
C         3.87068008243883    3.71950442603643    1.49046011824855
C         2.05610276647754    2.70755056430058    5.14143001532960
H         2.50129657668087    1.90491469206114    4.58243633735355
C         0.99772218196299    2.68672206455569    5.98508660706080
H         0.39146005342968    1.83718631136805    6.22865415943562
C         0.80954288529804    4.02174186486171    6.45843460436332
C        -0.08447316758535    4.68219995613177    7.29193043719618
H        -0.89527071920532    4.15770636283511    7.77444161270716
C         0.09860076691453    6.04401000326848    7.46045297256701
H        -0.57146408330397    6.61255138408027    8.08655609613510
C         1.14727018439463    6.69577456534016    6.81689603414957
H         1.30142554784306    7.75926909892803    6.94364938917416
C         1.82121972388998    4.80095183174340    5.85080296739405
C         5.47474721966238    4.43656234991447    5.34062027783505
H         5.36930326920224    5.15431104897143    6.14803193084751
H         6.42169640138498    4.62234131612754    4.84498689990432
H         5.52834460688255    3.45196342673751    5.79563332874543

