67
CSD_code = ZOLXAB | q = 1 | S = 0 | Stoichiometry = C30H33ClRhS2(1+) | MND = 8
C        -0.21983412809137    6.27689053320063    3.94953038702248
C        -0.22437670610194    7.57781218450289    3.47094540648634
H         0.34670379920172    7.84006050354922    2.59417633733587
C        -0.95692544676131    8.53873056381253    4.14679236252223
H        -0.96606269870113    9.55308860500496    3.77947489161024
C        -1.67340046361632    8.20387799586453    5.28482836476945
H        -2.24093296302145    8.95875965718382    5.80606458948311
C        -1.66756973380154    6.89878482014834    5.75102903691914
H        -2.23209001001378    6.63305756026723    6.63132499321404
C        -0.94426630805623    5.92700149662061    5.08127017456804
H        -0.94714330356599    4.90292895788387    5.42288366358841
C         0.04878594404507    5.13142118338316    1.40206285062035
H        -1.00273617964278    5.39441651422043    1.50980028451159
H         0.59306671390250    5.94567319024456    0.92614720528614
C         0.19960745073922    3.81472720847783    0.71085442997865
C        -0.84645703573755    2.90124776055388    0.79967383793268
H        -1.73928482548509    3.17790944696103    1.34089694654683
C        -0.76455671021586    1.65552901621607    0.20765301158545
H        -1.58873198766432    0.96463887631731    0.28888990780257
C         0.37669700818239    1.30470458587753   -0.49286165784221
H         0.45250934493682    0.33798033267180   -0.96481293593235
C         1.42243233203012    2.20207734567396   -0.58833199941335
H         2.30961277082370    1.92809972374650   -1.14008898786706
C         1.35578212877189    3.45816862801376    0.00927961677062
C         2.53875786294416    4.35577881292544   -0.11172989255633
H         2.29181579227397    5.41438126970788   -0.17528744686230
H         3.14908968772994    4.07586280667065   -0.97017506894455
C         3.57037565382421    2.48914404258830    1.67154720532077
C         2.59526564914297    1.98064552582798    2.51258574898086
H         1.90113408387778    2.64875195780967    3.00287451436325
C         2.51793009159267    0.61334980992404    2.71066118723343
H         1.75490744544676    0.20999481855476    3.35810998873693
C         3.41341670899179   -0.23326404449047    2.07770000715358
H         3.34844506518360   -1.29870322433883    2.23333182371599
C         4.39475293224945    0.28500927256934    1.24834338692753
H         5.09563300622168   -0.37291038321633    0.75873649296203
C         4.47780834717163    1.65112435006665    1.04229609345199
H         5.23623250281513    2.06715141454536    0.39680142505826
C         3.14875832685977    5.30340253571081    5.43464537383050
C         3.25071369893014    6.70453265255859    5.09597119793638
C         4.44973476578381    6.88040032906987    4.31881857120398
C         5.01485550029553    5.59221325368024    4.08805943771585
C         4.21093238684871    4.61399870768294    4.79293249877670
C         4.58342809631874    3.18629984701174    5.01181661005162
H         5.26284126711075    3.12685023771858    5.86365491760918
H         5.09081173338718    2.76529167317885    4.14709669002953
H         3.71098130664143    2.57687255772524    5.23234849956569
C         2.19049561168734    4.70552604849450    6.40629735384388
H         1.88137292817579    3.70854142327422    6.09960364111975
H         1.30800348910957    5.32751240857460    6.52992300440217
H         2.68454648992907    4.62014692177569    7.37540652217818
C         2.46032577355673    7.82058832126778    5.69312597053259
H         3.01519710937940    8.23608992035992    6.53577416134877
H         1.49188351480265    7.48313246922123    6.05305715735293
H         2.30178287571429    8.61833732471633    4.97041237622645
C         5.04450717666317    8.18883618482405    3.93234681904601
H         5.70452051873216    8.08805622445961    3.07452378325994
H         5.62863245314935    8.56940824083846    4.77191092429072
H         4.27511078194085    8.92119215251828    3.69848275447925
C         6.31539999003011    5.31971472505891    3.41296555642689
H         6.46572300876507    5.98278777259176    2.56361088964971
H         6.37372929295405    4.29084199122063    3.06642142138030
H         7.12705064982105    5.48930155308438    4.12210118451545
Cl        2.62542053960777    7.23809469414625    1.64151794470611
Rh        2.99405421980819    5.60485494226072    3.23171036605001
S         0.68378730763489    4.97079831032158    3.12708726801810
S         3.68890536464079    4.24317345720058    1.33089892134663

