59
CSD_code = ZOQFEQ | q = 0 | S = 0 | Stoichiometry = C18H32Cl2N2O4Pt | MND = 6
Pt        4.91040143499025    4.66847198723596    9.25168630196716
Cl        5.95599642221971    5.32975164678986   11.25209159256369
O         4.87381955654175    6.63057606304750    8.67235551587057
O         7.07474690716184    6.08864257343880    8.22804254916755
N         6.65668083667432    4.77240749063470    8.27280682006434
C         7.40258613000008    3.90104801672925    7.71292694345113
C         7.05021067871056    2.45814385095466    7.69968311614909
C         6.82109439912637    2.03611576688429    6.24051741142944
C         8.04796927616558    2.34966540849516    5.39154269694094
C         8.38285957878480    3.83478589954651    5.46719524959448
C         8.61944003398395    4.26315171323269    6.92329966079914
C         5.95920285917565    6.98688579337699    7.94352991561079
C         6.46943787133467    8.36591884951607    8.38310139659299
C         5.69698916702160    6.94272903775108    6.42766562798750
H         5.31640819417403    5.96147472177978    6.14919785115622
H         6.61259954540926    7.15612565318253    5.88210982743118
H         7.88629755106654    1.88956931496995    8.11308347070620
H         6.16197252630754    2.26093600766620    8.29896377603735
H         6.60221116316538    0.96852966726662    6.21140317762136
H         5.95000904331779    2.56870174933699    5.85576139983957
H         7.85936416332101    2.07006866688808    4.35364951194904
H         8.89992097934081    1.76440179737916    5.74632305443563
H         7.55505608088033    4.41504766905473    5.05516657831423
H         9.27610474444093    4.05610856186292    4.88065435175853
H         8.81814020157725    5.33259060539514    6.98488010815974
H         9.47780542568688    3.72151189421950    7.32561789638688
H         5.69193440753745    9.10075885745010    8.20227285131827
H         6.69336162405281    8.33138191602049    9.44540220554332
H         7.36521827307370    8.62359339708317    7.82770290895664
H         4.94295353071708    7.68415234844820    6.18295070015259
Cl        3.86567004985886    4.00502507360616    7.25090256904394
O         4.94610999503367    2.70624811133445    9.82968797990861
C         3.86120197285075    2.34921938675521   10.55869326056564
O         2.74552216569013    3.24731832802466   10.27438125583976
N         3.16339076177992    4.56365926977973   10.22951653457264
C         2.41732235168055    5.43488930533709   10.78932263059915
C         2.76976761831319    6.87774395341192   10.80239940481406
C         2.99878504751213    7.29990296953821   12.26151020846210
C         1.77181940286218    6.98638886103442   13.11038882638598
C         1.43693081938672    5.50124773840648   13.03490620248333
C         1.20051151850932    5.07270292595250   11.57885036596281
H         1.00192315890868    4.00321806992349   11.51731944622034
H         0.34218165829772    5.61424979583419   11.17633327909910
H         2.26472035043343    4.92106499825241   13.44710338028407
H         0.54362142663744    5.27995449531716   13.62129829273860
H         1.96030720823274    7.26611849276543   14.14826308308274
H         0.91988699412722    7.57158934232298   12.75546530693329
H         3.21767779439887    8.36747788235938   12.29051253599284
H         3.86983163500627    6.76733478240723   12.64636366593180
H         1.93373085056029    7.44627375367489   10.38886266164921
H         3.65809310617396    7.07485126685444   10.20318382599077
C         3.35121240894681    0.97004814379549   10.11928184465956
H         4.12892738591963    0.23542423859689   10.30010046574462
H         3.12726664370056    1.00452234171638    9.05700551272610
H         2.45547211713670    0.71207393706352   10.67470584032608
C         4.12364889865991    2.39344054175099   12.07452336528586
H         4.50415118168799    3.37475392793950   12.35293036950015
H         3.20812626195044    2.17990793002928   12.62027090991634
H         4.87779660978282    1.65210321058130   12.31913250732426

