47

Pd    0.00000   0.00000   0.00000
Cl    0.75582   0.31237   2.11129
C     2.11034  -2.03135   0.12962
N     1.83735  -0.82414  -0.64226
C     1.68676  -1.12001  -2.07322
C     0.27572  -1.60416  -2.40033
N    -0.74490  -0.70133  -1.85138
C    -0.98047   0.43865  -2.73040
C     2.91637   0.16758  -0.43167
C     2.60871   1.46306  -1.14381
C     1.66065   2.34941  -0.62618
C     1.31018   3.48676  -1.33899
C     1.90687   3.76211  -2.55877
C     2.88123   2.91287  -3.05439
C     3.22534   1.76892  -2.35328
C    -2.01044  -1.43408  -1.61822
C    -1.80969  -2.55529  -0.62682
C    -1.69356  -2.28133   0.73861
C    -1.39976  -3.30288   1.63010
C    -1.23614  -4.60266   1.17877
C    -1.39996  -4.88901  -0.16560
C    -1.68006  -3.87072  -1.06204
H     2.15328  -1.77116   1.18816
H     1.30951  -2.75925  -0.01146
H     3.06434  -2.48769  -0.16947
H     1.88552  -0.20594  -2.63804
H     2.41836  -1.87898  -2.38972
H     0.13311  -2.59506  -1.96264
H     0.16278  -1.69705  -3.49117
H    -1.69728   1.10928  -2.25452
H    -0.05179   0.98901  -2.89142
H    -1.37767   0.11604  -3.70301
H     2.98265   0.34538   0.64634
H     3.87039  -0.24693  -0.79146
H     1.24378   2.19672   0.36898
H     0.57261   4.16164  -0.93186
H     1.62817   4.64585  -3.11302
H     3.37235   3.13585  -3.99030
H     3.98825   1.11057  -2.74847
H    -2.73020  -0.71242  -1.21930
H    -2.38527  -1.83215  -2.57342
H    -1.90433  -1.28415   1.12385
H    -1.30591  -3.07850   2.68179
H    -1.00128  -5.39408   1.87471
H    -1.30461  -5.90458  -0.52110
H    -1.80678  -4.10426  -2.11138
O    -1.35618   0.89221   0.29534
