33

C     1.72360   0.92606  -0.38385
C     3.24635   2.54175  -0.49707
H     3.65889   3.51818  -0.35022
C     3.76939   1.43935  -1.08210
H     4.72475   1.27881  -1.53671
C     1.07292   3.08288   0.60232
H     0.62580   3.78613  -0.10378
H     1.58800   3.63468   1.38825
H     0.27783   2.47611   1.05016
C     2.99968  -0.89727  -1.47382
H     3.05676  -1.58566  -0.62355
H     3.93578  -0.95885  -2.03161
C     1.85339  -1.33411  -2.39125
H     0.92368  -1.42930  -1.79018
H     1.69047  -0.56982  -3.16459
C    -1.92479  -2.19250   0.10618
H    -1.10189  -2.71161  -0.37483
C    -3.10582  -2.85080   0.39187
H    -3.21976  -3.88916   0.12466
C    -4.12350  -2.15557   1.02655
H    -5.05658  -2.64086   1.26756
C    -3.91366  -0.82304   1.34644
H    -4.67331  -0.24029   1.84227
C    -2.70531  -0.23995   1.01608
H    -2.51061   0.80384   1.24228
N     1.99072   2.20495  -0.07155
N     2.82303   0.45286  -1.00279
N    -1.72980  -0.91129   0.40854
O     2.21364  -2.56661  -2.96052
H     1.52767  -2.84261  -3.57692
I    -1.13126   1.27000  -2.01291
Pt    0.00000   0.00000   0.00000
O     0.70200  -0.74445   1.29441
