57

C    -0.04133   1.57603  -1.21627
C     0.11889   3.62663  -2.05065
H     0.28710   4.68238  -2.03695
C    -0.19296   2.79332  -3.07035
H    -0.35936   2.98520  -4.10997
C     0.60365   3.33965   0.37645
H     0.16218   2.69230   1.14334
H     0.23230   4.35748   0.50898
C     2.13661   3.29599   0.48132
H     2.44504   3.67031   1.46859
H     2.45417   2.25391   0.39863
C     3.93448   3.46293  -1.15574
H     3.74462   2.42137  -1.41941
H     4.76659   3.50309  -0.43269
C     4.32358   4.24079  -2.41181
H     5.26187   3.86614  -2.82240
H     3.52472   4.13284  -3.16163
C     3.37327   6.17621  -1.57078
H     2.54971   6.13563  -2.30149
H     3.61541   7.21848  -1.35597
C     2.94849   5.44543  -0.29583
H     3.73868   5.56238   0.46725
H     2.02651   5.88794   0.08753
C    -0.62414   0.33587  -3.26523
H    -0.70359  -0.47540  -2.52001
H     0.18588   0.08748  -3.95898
C    -1.92884   0.49044  -3.99882
C    -2.01256   0.22590  -5.36097
H    -1.13480  -0.10512  -5.89733
C    -3.21143   0.38087  -6.02878
H    -3.27308   0.17356  -7.08742
C    -4.34519   0.81170  -5.34199
C    -4.25942   1.07389  -3.97333
H    -5.14594   1.39952  -3.45085
C    -3.06223   0.91251  -3.30888
H    -3.00395   1.10788  -2.24851
C    -5.62040   0.99062  -6.04720
H    -5.57055   0.73585  -7.12573
C    -0.39414  -2.76256   0.81830
H    -0.79431  -2.81611  -0.19003
C    -0.36325  -3.87827   1.63303
H    -0.73897  -4.82087   1.26854
C     0.15549  -3.75690   2.91308
H     0.19436  -4.60808   3.57501
C     0.62307  -2.51791   3.32427
H     1.03450  -2.37465   4.31060
C     0.55511  -1.45493   2.44402
H     0.91175  -0.46834   2.72674
N     0.19635   2.86342  -0.91840
N    -0.28744   1.53542  -2.53603
N     2.72072   4.04718  -0.61115
N     0.05688  -1.57699   1.21715
O     4.53025   5.60600  -2.12949
O    -6.64568   1.37582  -5.54780
I    -2.40567   0.57069   0.87289
Pt    0.00000   0.00000   0.00000
O     1.49342  -0.40228  -0.57478
