30

C    -1.49167   1.14232  -0.65368
C    -3.45205   1.78369  -1.49817
H    -4.42052   1.66556  -1.93828
C    -2.76067   2.89537  -1.15632
H    -3.02155   3.92989  -1.23896
C    -2.98570  -0.67844  -1.35205
H    -3.72124  -0.99549  -0.59938
H    -2.06076  -1.26489  -1.20735
C    -3.51767  -0.93749  -2.67190
C    -0.51449   3.33629  -0.15147
H     0.24033   2.70972   0.33717
H    -0.91008   4.05107   0.57030
H    -0.04642   3.87398  -0.97817
C     1.52863  -2.44133   0.41692
H     0.70771  -2.84716  -0.16685
C     2.54991  -3.25521   0.86901
H     2.53671  -4.30952   0.64399
C     3.57747  -2.69000   1.60836
H     4.39011  -3.29680   1.97649
C     3.53822  -1.32781   1.86411
H     4.31455  -0.84298   2.43391
C     2.47867  -0.58842   1.37418
H     2.41144   0.48085   1.55388
N    -2.65345   0.71522  -1.18216
N    -1.56326   2.48102  -0.63605
N    -3.95206  -1.12249  -3.71106
N     1.49497  -1.13555   0.66598
I    -1.33503  -0.44672   2.21698
Pt    0.00000   0.00000   0.00000
O     0.81893   0.25447  -1.40965
