17

Au    0.00000   0.00000   0.00000
I     1.23383  -0.31593  -2.28675
I    -1.95395  -1.55042  -0.80050
P     1.69101   1.40366   0.79616
C     3.09362   1.79210  -0.28973
H     3.76562   2.46093   0.25219
H     2.74089   2.27924  -1.19948
H     3.62178   0.87799  -0.56297
C     2.51230   0.74657   2.27620
H     3.29594   1.44605   2.57448
H     2.96054  -0.21992   2.03581
H     1.79877   0.62204   3.09035
C     1.08761   3.05357   1.25639
H     1.93826   3.64883   1.59456
H     0.34507   2.98587   2.05094
H     0.63882   3.52685   0.38040
O    -0.71934   0.22301   1.46810
