24

Au    0.00000   0.00000   0.00000
I     0.68665  -1.95592   1.59945
I    -1.05205   1.35050   1.97455
P    -0.49755   1.70327  -1.50066
C    -1.70492   1.20225  -2.75697
H    -1.87444   2.04328  -3.43357
H    -2.63939   0.95866  -2.24377
H    -1.36204   0.32993  -3.31319
C    -1.22011   3.25777  -0.89410
H    -1.31394   3.93156  -1.74956
H    -0.57699   3.71123  -0.13944
H    -2.20101   3.06607  -0.45614
C     1.01273   2.25729  -2.31156
C     1.23838   2.12427  -3.67611
H     0.48771   1.68751  -4.31793
C     2.44757   2.54037  -4.20326
H     2.62919   2.43704  -5.26206
C     3.42605   3.07133  -3.37841
H     4.37076   3.38288  -3.79688
C     3.20412   3.19167  -2.01524
H     3.97107   3.59402  -1.37096
C     1.99954   2.78142  -1.47843
H     1.82213   2.85592  -0.41094
O     0.59184  -0.78585  -1.32464
