33

Au    0.00000   0.00000   0.00000
P    -2.09436  -0.30903   0.80084
C    -2.37690   0.13915   2.59182
H    -2.22050  -0.80230   3.13652
C    -1.28570   1.11651   3.02877
H    -1.36743   1.32222   4.09464
H    -1.36442   2.06121   2.49347
H    -0.29703   0.70003   2.83698
C    -3.76366   0.67553   2.93689
H    -3.84280   0.78452   4.01773
H    -4.55236   0.00260   2.60965
H    -3.93228   1.65340   2.49225
C    -2.61479  -2.08885   0.67648
H    -2.55850  -2.30231  -0.40013
C    -4.02038  -2.40373   1.17656
H    -4.26116  -3.44149   0.95081
H    -4.76646  -1.77378   0.69596
H    -4.08841  -2.27331   2.25445
C    -1.56667  -2.95453   1.37370
H    -1.74767  -4.00645   1.16184
H    -1.59330  -2.82096   2.45396
H    -0.56514  -2.70397   1.02199
C    -3.34515   0.63184  -0.19712
H    -4.32973   0.56818   0.27899
C    -2.89469   2.09037  -0.25639
H    -3.59311   2.67805  -0.84971
H    -1.91064   2.16123  -0.72086
H    -2.83477   2.53542   0.73486
C    -3.41001   0.04862  -1.60674
H    -3.97308   0.71497  -2.25783
H    -3.89610  -0.92444  -1.62091
H    -2.40611  -0.05609  -2.02142
O     1.51194   0.22067  -0.62277
