34

Au    0.00000   0.00000   0.00000
Br   -0.05199   1.99581  -1.38720
Br   -2.12550  -0.80146  -0.90021
P     2.01414   0.67206   0.95597
C     3.34274  -0.51717   0.63735
H     4.26622  -0.15194   1.09231
H     3.07230  -1.49363   1.04044
H     3.47584  -0.59488  -0.44458
C     1.78694   0.83580   2.73323
C     2.56251   0.16269   3.66836
H     3.35522  -0.49765   3.35178
C     2.29957   0.34109   5.01481
H     2.89846  -0.17847   5.74730
C     1.26962   1.17186   5.42491
H     1.06735   1.29856   6.47750
C     0.48838   1.83380   4.48984
H    -0.32156   2.47198   4.80932
C     0.74351   1.66483   3.14347
H     0.13418   2.16938   2.40090
C     2.70644   2.28975   0.42149
H     1.94728   3.05367   0.61654
H     2.86719   2.23553  -0.66011
C     3.97698   2.56128   1.16903
C     5.20755   2.24049   0.60594
H     5.24754   1.82329  -0.39059
C     6.38034   2.47397   1.30216
H     7.32928   2.22624   0.85083
C     6.33590   3.02429   2.57198
H     7.25022   3.20133   3.11739
C     5.11508   3.35601   3.13527
H     5.07423   3.79681   4.11975
C     3.94221   3.12771   2.43830
H     2.99415   3.40302   2.87750
O     0.18597  -1.29075   1.01088
