59

Zr    0.00000   0.00000   0.00000
Cl    1.49397   1.35740   1.20721
Si   -0.06737  -3.49160  -1.13370
O    -1.03540  -4.79839  -1.01027
C     0.20346  -1.15259   2.28189
C     0.78562  -1.94473   1.27321
C    -0.23523  -2.35004   0.36388
C    -1.44976  -1.77070   0.83350
C    -1.17420  -1.02776   2.00362
C    -1.29094   2.13155   0.05067
C    -2.24849   1.10440  -0.08030
C    -2.05215   0.47799  -1.33475
C    -0.98108   1.13573  -1.98549
C    -0.50741   2.15185  -1.12709
C     1.76155  -3.97486  -1.36110
C    -0.83327  -2.57946  -2.62245
C    -0.79406  -6.04790  -0.42504
C    -1.31542  -7.19911  -1.31153
C    -2.80923  -6.94334  -1.57246
C    -3.48050  -7.33586  -0.24327
C    -2.28256  -7.59301   0.67663
C    -1.51125  -6.27746   0.94205
C    -1.35742  -8.33663  -0.28803
C    -0.48649  -7.41330  -2.56195
C    -0.48485  -6.47152   2.06087
C    -2.41336  -5.11026   1.33686
H     0.70998  -0.76393   3.15651
H     1.82077  -2.26843   1.24239
H    -2.43545  -1.99350   0.44193
H    -1.90458  -0.56085   2.65388
H    -1.22659   2.84508   0.86376
H    -3.07700   0.92324   0.59341
H    -2.71527  -0.24799  -1.78803
H    -0.65766   0.97417  -3.00765
H     0.26511   2.87515  -1.36294
H     1.87138  -4.67437  -2.18463
H     2.16384  -4.45275  -0.47157
H     2.37617  -3.10780  -1.57790
H    -0.62187  -3.09328  -3.55425
H    -0.42123  -1.57452  -2.69750
H    -1.91402  -2.51344  -2.53313
H     0.28591  -6.16910  -0.29236
H    -3.16545  -7.55818  -2.39876
H    -2.97058  -5.89818  -1.82907
H    -4.05390  -8.25752  -0.35547
H    -4.15519  -6.57341   0.13580
H    -2.54392  -8.11995   1.59374
H    -0.37873  -8.57284   0.12341
H    -1.80667  -9.24409  -0.68705
H    -0.50538  -6.51433  -3.17377
H    -0.88092  -8.24304  -3.14444
H     0.54655  -7.63391  -2.30077
H    -0.99297  -6.61587   3.01208
H     0.14864  -5.59048   2.14162
H     0.14877  -7.33557   1.87879
H    -2.98707  -4.75089   0.48963
H    -1.80718  -4.28599   1.70389
H    -3.09351  -5.41924   2.12770
O     1.20784  -0.32223  -1.07693
