59

Zn    0.00000   0.00000   0.00000
Cl   -1.19041  -0.69607  -1.73101
C     0.55147   2.58916  -5.81863
H    -0.27599   2.78306  -5.12946
H     0.19275   2.66507  -6.84400
H     1.34223   3.32932  -5.65709
O     1.03690   1.27516  -5.68152
C     1.49341   0.87648  -4.46587
C     1.88217  -0.46150  -4.37121
H     1.79193  -1.08464  -5.24657
C     2.34989  -0.96731  -3.17994
H     2.63803  -2.00814  -3.12238
C     2.45407  -0.15604  -2.05316
C     2.08635   1.17781  -2.15519
H     2.18886   1.83223  -1.30193
C     1.61069   1.69579  -3.34855
H     1.32877   2.73579  -3.38716
C     2.87440  -0.74717  -0.73683
H     3.69483  -1.46116  -0.88890
H     3.20459   0.03764  -0.05209
N     1.69791  -1.40307  -0.14435
H     1.36796  -2.09724  -0.81599
C     1.92163  -2.06789   1.13876
H     2.43140  -1.34611   1.78896
C     2.76852  -3.33953   1.01700
H     2.26295  -4.04134   0.34824
H     3.74027  -3.09889   0.58316
C     2.97266  -3.99171   2.38061
H     3.56712  -4.89966   2.26861
H     3.52425  -3.30854   3.02995
C     1.62776  -4.32349   3.01550
H     1.77882  -4.76308   4.00254
H     1.10407  -5.05716   2.39898
C     0.77486  -3.06500   3.13852
H     1.27247  -2.34930   3.79850
H    -0.18726  -3.32340   3.58349
C     0.55820  -2.41333   1.76832
H     0.03696  -3.11430   1.10460
N    -0.25621  -1.20053   1.83312
H     0.12268  -0.59426   2.56163
C    -1.68226  -1.40470   2.13336
H    -1.81764  -1.92960   3.08842
H    -2.11443  -2.00559   1.32965
C    -2.33516  -0.05221   2.19066
C    -2.99886   0.47110   1.09053
H    -3.13471  -0.13273   0.20522
C    -3.51682   1.75554   1.11644
H    -4.02090   2.12969   0.23980
C    -3.37286   2.54175   2.25424
C    -2.72388   2.00953   3.37045
H    -2.62454   2.62734   4.24859
C    -2.20996   0.73357   3.33332
H    -1.70209   0.34084   4.20369
O    -3.83394   3.81238   2.38839
C    -4.41802   4.43637   1.27010
H    -3.72396   4.47182   0.42495
H    -4.65201   5.45127   1.58801
H    -5.34066   3.93215   0.96396
O     0.36550   1.45681   0.68309
