30

Pd    0.00000   0.00000   0.00000
Cl    0.99231   1.90294   0.61185
N    -0.67640  -1.78654  -0.70304
C     0.26045  -2.76128  -0.58587
C     0.03489  -4.05003  -1.08138
C    -1.16600  -4.32884  -1.70007
C    -2.11651  -3.31700  -1.81100
C    -1.83145  -2.06269  -1.29969
C     1.44057  -2.36652   0.12486
N     1.50837  -1.13081   0.51056
C     2.50903  -0.64425   1.35478
C     2.22354  -0.46078   2.71596
C     3.16641   0.10937   3.55756
C     4.39761   0.49001   3.05402
C     4.68925   0.29717   1.71363
C     3.75595  -0.26918   0.86590
C     0.88686  -0.90123   3.23825
F    -0.16784  -0.25131   2.67140
F     0.75260  -0.75500   4.55423
F     0.65198  -2.21042   2.97600
H     0.80045  -4.80184  -0.97201
H    -1.36555  -5.31457  -2.09101
H    -3.06590  -3.49952  -2.28709
H    -2.53763  -1.24192  -1.36141
H     2.20276  -3.09406   0.39147
H     2.92858   0.25576   4.59950
H     5.12487   0.94350   3.70806
H     5.64836   0.59719   1.32084
H     3.96282  -0.39388  -0.18640
O    -1.36512   0.83724  -0.39748
