48

Zr    0.00000   0.00000   0.00000
Cl   -0.99123  -1.94756   0.86045
C    -0.86582   1.68128  -1.58690
H    -0.62814   2.73817  -1.58509
C    -2.02449   1.09976  -1.01077
H    -2.80624   1.63069  -0.48109
C    -2.08273  -0.24794  -1.41568
H    -2.89244  -0.93759  -1.21355
C    -0.95146  -0.51526  -2.21877
H    -0.74475  -1.44619  -2.73579
C    -0.19683   0.68112  -2.33813
C     1.04786   0.86323  -3.16470
H     0.79194   1.32400  -4.12564
H     1.48477  -0.11870  -3.37012
C     2.08859   1.73311  -2.44844
H     2.19473   1.35892  -1.41925
H     1.74009   2.76927  -2.41937
C     3.44517   1.67929  -3.15442
H     3.28834   1.77250  -4.23194
H     3.89730   0.70324  -2.97597
C     4.40486   2.79345  -2.72445
H     4.01388   3.74814  -3.08672
H     5.36755   2.62861  -3.21320
C     4.62095   2.91057  -1.21503
H     5.25946   3.77674  -1.02251
H     3.65993   3.10386  -0.74031
C     5.26671   1.67343  -0.59632
H     6.26539   1.54768  -1.02107
H     4.69064   0.78826  -0.86527
C     5.39884   1.75815   0.92751
H     6.00864   2.62892   1.18069
H     5.92965   0.87055   1.27869
C     4.06826   1.86705   1.67804
H     4.27557   2.00850   2.74061
H     3.54045   2.75812   1.34160
C     3.18056   0.62666   1.49360
H     3.44164  -0.12522   2.24270
H     3.39423   0.18304   0.51709
C     1.70443   0.91685   1.59598
C     0.77646   0.17091   2.35858
H     1.01291  -0.69424   2.96790
C    -0.48582   0.81183   2.29217
H    -1.36850   0.52684   2.85241
C    -0.34575   1.95666   1.48327
H    -1.08671   2.73564   1.35229
C     0.99692   2.01055   1.02553
H     1.43189   2.85387   0.50306
O     1.27083  -0.91309  -0.52322
