44

Re    0.00000   0.00000   0.00000
P     0.74687   2.20614   0.66737
O    -1.34554   1.37344  -1.17263
O     1.83932  -1.74206   1.77276
O     1.84100  -0.19207  -2.47063
O    -1.77419  -2.37952  -0.87904
C    -0.65326   3.34794   0.95716
C    -0.62708   4.22367   2.03373
C    -1.65775   5.12610   2.23940
C    -2.72469   5.18471   1.35652
C    -2.76757   4.32202   0.28019
C    -1.75260   3.38386   0.07480
C    -1.92828   2.43027  -1.00974
C     1.77863   2.40521   2.15015
C     1.62349   1.49756   3.19362
C     2.39884   1.61313   4.33297
C     3.33523   2.62836   4.43408
C     3.49378   3.53299   3.39569
C     2.71993   3.42662   2.25531
C     1.70870   3.10637  -0.59224
C     1.29723   4.27971  -1.21102
C     2.08615   4.84865  -2.19712
C     3.27936   4.25346  -2.56795
C     3.69355   3.08208  -1.95107
C     2.90938   2.50782  -0.97131
C     1.15789  -1.11523   1.09406
C     1.17756  -0.12337  -1.53997
C    -1.06995  -1.53858  -0.57102
H     0.19930   4.19048   2.72857
H    -1.62402   5.78625   3.09288
H    -3.52278   5.89392   1.51316
H    -3.60392   4.34547  -0.40372
H    -2.71991   2.69981  -1.73040
H     0.89260   0.70436   3.11873
H     2.27293   0.90644   5.13892
H     3.94492   2.71574   5.32098
H     4.22447   4.32477   3.47353
H     2.84642   4.13307   1.44609
H     0.36837   4.75587  -0.92559
H     1.76343   5.76097  -2.67725
H     3.88667   4.70032  -3.34067
H     4.62255   2.61485  -2.24086
H     3.21460   1.58826  -0.48489
O    -1.10372   0.22465   1.20575
