43

Ni    0.00000   0.00000   0.00000
Cl    1.37764  -1.52080  -0.50849
N     0.77929   1.30546  -1.71640
N    -1.09956  -0.59430  -1.53599
C     1.89075   2.02450  -1.65729
H     2.02576   2.60622  -0.75458
C     2.84168   2.02939  -2.66635
H     3.73822   2.62023  -2.56611
C     2.61671   1.25437  -3.79259
H     3.33985   1.22095  -4.59408
C     1.45273   0.50810  -3.86964
H     1.26539  -0.13154  -4.71754
C     0.55573   0.55847  -2.80781
C    -0.66816  -0.25581  -2.75894
C    -1.34031  -0.66995  -3.90668
H    -0.99467  -0.35361  -4.87805
C    -2.45521  -1.47780  -3.78374
H    -2.98592  -1.81802  -4.66050
C    -2.87347  -1.84340  -2.51363
H    -3.72897  -2.48405  -2.36998
C    -2.16857  -1.36706  -1.42096
H    -2.46393  -1.62451  -0.41221
N    -1.35939   1.28453   0.64984
N    -1.11717  -1.20766   1.59730
C    -1.63388   2.43255   0.04996
H    -1.11282   2.62093  -0.87963
C    -2.51961   3.36080   0.57112
H    -2.69822   4.29004   0.05385
C    -3.16417   3.06649   1.76261
H    -3.87070   3.75906   2.19539
C    -2.88162   1.86739   2.38960
H    -3.37534   1.59839   3.30990
C    -1.95630   0.99871   1.81532
C    -1.56211  -0.26980   2.44688
C    -1.57976  -0.46380   3.82406
H    -1.90669   0.32254   4.48580
C    -1.11897  -1.66686   4.33202
H    -1.10426  -1.83861   5.39819
C    -0.66549  -2.63552   3.45133
H    -0.29365  -3.58296   3.80774
C    -0.68878  -2.35956   2.09270
H    -0.33631  -3.08060   1.36648
O     1.01908   0.60054   1.15036
