41

Pt    0.00000   0.00000   0.00000
I     1.96223  -1.07306   1.35172
S     4.78003   1.33582  -2.34133
O     3.88581   2.33889  -1.86117
O     5.93373   1.71896  -3.08783
N     0.87215  -0.54947  -1.65966
N     3.93901   0.30701  -3.38577
C     1.97727   0.08847  -2.02825
C     2.76666  -0.34292  -3.09306
C     2.32914  -1.45360  -3.82192
C     1.15795  -2.08199  -3.44243
C     0.45884  -1.61388  -2.34391
C     5.25753   0.24924  -0.98761
H     2.25628   0.97773  -1.47197
H     4.48308  -0.02871  -4.16306
H     2.90361  -1.80958  -4.66326
H     0.79362  -2.93967  -3.98417
H    -0.45094  -2.09566  -2.00235
H     4.37374  -0.15867  -0.51278
H     5.81136   0.85196  -0.27915
H     5.88733  -0.53219  -1.39030
N    -0.87299   0.54846   1.65976
C    -1.97905  -0.08988   2.02500
C    -2.77026   0.33949   3.08924
N    -3.94347  -0.31056   3.37820
S    -4.78369  -1.33529   2.32912
O    -3.88964  -2.33782   1.84755
O    -5.93908  -1.71966   3.07232
C    -5.25762  -0.24411   0.97791
H    -4.37253   0.16432   0.50606
H    -5.81069  -0.84398   0.26644
H    -5.88731   0.53666   1.38187
H    -4.48886   0.02382   4.15515
C    -2.33360   1.44835   3.82138
C    -1.16146   2.07708   3.44547
C    -0.46051   1.61115   2.34713
H     0.45006   2.09330   2.00832
H    -0.79783   2.93340   3.98981
H    -2.90952   1.80265   4.66246
H    -2.25752  -0.97782   1.46630
O    -1.23773   0.67943  -0.85375
