31

C     2.20659   0.95199   1.65120
C     0.12263   0.36373   2.88929
C     1.44372   0.80811   2.81130
C     3.62305   1.44468   1.80550
C    -0.50642   0.29166   4.25751
H     1.92301   1.06679   3.74186
H     4.05223   1.63439   0.82541
H     3.64109   2.35414   2.40047
H     4.21339   0.68457   2.31403
H    -1.53955  -0.03245   4.16722
H     0.04374  -0.41565   4.87437
H    -0.46887   1.26918   4.73250
O     1.84868   0.70836   0.46479
O    -0.62382   0.00688   1.93517
Pt    0.00000   0.00000   0.00000
I     0.87614  -2.49543   0.30071
O    -1.84778  -0.70724  -0.46935
O     0.62772  -0.00445  -1.93415
C    -2.20189  -0.95070  -1.65702
C    -0.11569  -0.36092  -2.89065
C    -1.43674  -0.80596  -2.81550
C    -3.61756  -1.44433  -1.81497
C     0.51665  -0.28837  -4.25740
H    -1.91410  -1.06459  -3.74708
H    -4.04925  -1.63311  -0.83583
H    -3.63306  -2.35455  -2.40884
H    -4.20676  -0.68513  -2.32618
H     1.54929   0.03675  -4.16491
H    -0.03267   0.41827  -4.87577
H     0.48125  -1.26595  -4.73247
O    -0.55371   1.54385  -0.18005
