36

Re    0.00000   0.00000   0.00000
Cl   -2.40304  -4.22093   4.42900
N    -1.33231  -1.30274   1.18642
C    -1.70841   0.08847  -2.49353
H    -1.55548   1.14322  -2.29786
O     1.70207   0.94384   2.40468
Cl   -2.74052  -2.18035  -5.56490
N    -1.42068  -0.75157  -1.51590
O     1.55944   1.83818  -1.93893
C    -2.18420  -0.29758  -3.74096
H    -2.40782   0.44227  -4.49078
C    -2.29292  -1.64280  -3.99409
O     1.77120  -2.46482  -0.56493
C    -2.04921  -2.57018  -2.95621
C    -1.68698  -2.07271  -1.67233
C    -2.14299  -3.96389  -3.18334
H    -2.34504  -4.31075  -4.18374
C    -1.98625  -4.83101  -2.15754
H    -2.04720  -5.89610  -2.32022
C    -1.82075  -4.36326  -0.83049
C    -1.65285  -2.98988  -0.55588
C    -1.90231  -5.31569   0.21525
H    -1.96462  -6.36028  -0.04849
C    -1.97959  -4.92185   1.50663
H    -2.11779  -5.63570   2.30240
C    -1.88609  -3.54905   1.83745
C    -1.60284  -2.58363   0.83013
C    -2.05253  -3.10507   3.16853
C    -1.94706  -1.76631   3.45512
H    -2.11478  -1.38185   4.44691
C    -1.54808  -0.91611   2.43066
H    -1.39684   0.13345   2.65372
C     1.11243   0.59170   1.48773
C     1.02440   1.14430  -1.20090
C     1.12403  -1.54126  -0.35337
O    -1.07902   1.21567   0.28345
