22

W     0.00000   0.00000   0.00000
C     0.55719  -1.55326   1.46774
H     0.24030  -1.27939   2.48207
H     1.63806  -1.75961   1.52536
H     0.06130  -2.51349   1.25339
C     1.22299  -1.38523  -1.22975
H     0.81259  -2.40605  -1.15982
H     2.27008  -1.45694  -0.89655
H     1.27887  -1.17146  -2.30076
C    -1.45205  -0.00111  -1.66071
H    -1.03822  -0.00092  -2.67532
H    -2.11083   0.88402  -1.59010
C     0.55753   1.55188   1.46851
H     0.24057   1.27765   2.48276
H     1.63847   1.75821   1.52555
H     0.06124   2.51184   1.25375
C     1.22336   1.38366  -1.23047
H     0.81236   2.40418  -1.15980
H     2.27033   1.45544  -0.89688
H     1.27905   1.17015  -2.30156
H    -2.11113  -0.88608  -1.59033
O    -1.42058  -0.00065   0.83932
