41

Zn    0.00000   0.00000   0.00000
Cl    1.84597   0.61803   1.02836
N    -2.92035  -0.27140   4.04663
H    -3.83283  -0.38104   4.47362
H    -2.03864   0.92873   2.82401
H    -2.22170  -0.35424   4.77774
O    -1.40992   0.55055   2.16529
O    -0.95337  -1.44287   1.35784
C    -2.70737  -1.27363   3.00537
H    -2.39133  -2.25531   3.38904
C    -3.99912  -1.47627   2.17367
H    -4.77448  -1.78455   2.88795
C    -1.60631  -0.74584   2.10032
C    -3.81518  -2.58734   1.14651
H    -4.74819  -2.75147   0.61386
H    -3.52110  -3.51860   1.62565
H    -3.05178  -2.31568   0.42270
C    -4.43961  -0.18065   1.49664
H    -4.52185   0.63068   2.21645
H    -5.41338  -0.32539   1.03567
H    -3.74098   0.10685   0.71370
O     1.40521   0.54483  -2.16663
C     1.60746  -0.75044  -2.09755
O     0.95890  -1.44764  -1.35143
C     2.70933  -1.27612  -3.00311
N     2.91889  -0.27382  -4.04509
H     3.83314  -0.37807  -4.46957
H     2.03153   0.92321  -2.82773
H     2.22261  -0.36144  -4.77786
H     2.39548  -2.25866  -3.38627
C     4.00211  -1.47533  -2.17228
H     4.77838  -1.77989  -2.88720
C     3.82256  -2.58853  -1.14664
H     4.75477  -2.74612  -0.61066
H     3.53730  -3.52155  -1.62770
H     3.05441  -2.32321  -0.42553
C     4.43787  -0.17885  -1.49382
H     4.51538   0.63399  -2.21244
H     5.41302  -0.31993  -1.03464
H     3.73913   0.10458  -0.70949
O    -1.38565   0.45363  -0.77246
