63

H     0.50095   0.51797   3.02456
H     2.08321   1.75277   4.48757
H     3.29741   3.71570   3.51191
H     2.90062   4.32534   1.18562
H     1.90916   4.96102  -1.06194
H     3.19961   3.77868  -0.74172
H     1.90580   5.59819  -3.31723
H     2.23739   5.10301  -5.70041
H     2.90260   2.83741  -6.41350
H     3.24949   1.06925  -4.71290
H     2.93177   1.56074  -2.34190
H    -1.58523   3.42635  -2.11865
H    -0.10377   3.64657  -3.04741
H    -0.39604   4.65184  -1.62527
H    -4.81092   0.58967  -0.69925
H    -4.93956  -0.14559  -3.03263
H    -2.92537  -0.17249  -4.43255
H    -1.60869   1.38745   1.04043
H    -4.55414   0.73172   1.46090
H    -3.26541   0.82730   2.65476
H    -3.25912  -0.47222   1.46512
H    -2.42449   3.57570   0.23357
H    -3.05581   3.23971   1.84646
H    -4.09756   3.04765   0.43283
H     0.44299   0.97725  -3.25886
H    -0.84970  -1.40249  -4.66064
H     0.07467  -1.47314  -3.15867
H     0.86751  -0.97618  -4.64683
H    -0.93756   2.33839  -4.89357
H    -1.33679   0.83992  -5.73175
H     0.34045   1.37150  -5.63116
C     1.07252   1.35472   2.64444
C     1.94567   2.04478   3.46037
C     2.62190   3.12384   2.91269
C     2.41206   3.45555   1.58952
C     1.54378   2.67530   0.81449
C     2.21739   3.91616  -1.20012
C     2.38002   3.60977  -2.66846
C     2.19515   4.60203  -3.62370
C     2.38332   4.32438  -4.96639
C     2.75679   3.05194  -5.36526
C     2.95027   2.06229  -4.41622
C     2.76982   2.33896  -3.07217
C     0.14707   2.62726  -1.17815
C    -0.52322   3.65576  -2.04283
C    -1.57510   1.03044  -1.58017
C    -2.71894   1.01107  -0.75567
C    -3.92110   0.59731  -1.30812
C    -3.99542   0.18230  -2.62469
C    -2.86030   0.17208  -3.41252
C    -1.63741   0.59971  -2.91775
C    -2.65068   1.45892   0.69022
C    -3.48916   0.57981   1.61885
C    -3.08235   2.92329   0.80570
C    -0.40711   0.54029  -3.79098
C    -0.06144  -0.92194  -4.08596
C    -0.60209   1.32155  -5.09160
N     0.88230   1.64911   1.36094
N     1.30050   3.00408  -0.51883
N    -0.35026   1.45786  -1.03116
Ni    0.00000   0.00000   0.00000
Br   -0.32971  -1.71163   1.27923
O     1.42487  -0.44144  -0.70525
