58

Cu    0.00000   0.00000   0.00000
S     0.34457   1.72668   1.54381
S     1.75014  -1.51283   0.38025
O    -5.50157   4.72947   0.89725
O     1.82364  -4.25201  -5.62630
N    -3.18990   3.16269   0.85317
N    -2.08786   2.39680   0.82178
H    -2.01856   1.60128   0.17590
N    -1.19867   3.77645   2.37852
H    -2.12055   4.18873   2.22581
N     1.41572  -2.87131  -3.23480
N     1.20750  -2.19669  -2.09355
H     0.40048  -1.56948  -1.99291
N     3.02563  -3.24546  -1.24928
H     2.97489  -3.62860  -2.19467
C    -6.71015   5.25158   0.66424
H    -6.99189   6.11406   1.23604
C    -7.37198   4.54747  -0.30012
H    -8.35269   4.74334  -0.68167
C    -6.50001   3.51248  -0.68782
H    -6.67412   2.75626  -1.42527
C    -5.36095   3.66335   0.07443
C    -4.16756   2.88082   0.07670
H    -4.14427   2.04163  -0.61965
C    -1.02190   2.69161   1.60674
C    -0.40152   4.44206   3.30611
C     0.87968   4.04590   3.67619
H     1.32604   3.16807   3.24432
C     1.58573   4.78718   4.60704
H     2.57949   4.47006   4.88533
C     1.03540   5.92065   5.17833
H     1.59529   6.49299   5.90205
C    -0.24215   6.31590   4.81424
H    -0.68333   7.19793   5.25400
C    -0.95617   5.58466   3.88730
H    -1.95260   5.89357   3.60324
C     1.72140  -4.74304  -6.86547
H     2.47528  -5.43657  -7.18310
C     0.62539  -4.23937  -7.50491
H     0.30284  -4.46111  -8.50107
C     0.00872  -3.37016  -6.58517
H    -0.88034  -2.79201  -6.73145
C     0.78020  -3.40857  -5.44313
C     0.59998  -2.71565  -4.20877
H    -0.26860  -2.05851  -4.15015
C     2.03312  -2.36733  -1.03061
C     4.08436  -3.71721  -0.47801
C     4.94049  -4.62940  -1.09926
H     4.75080  -4.92146  -2.12291
C     6.01917  -5.15438  -0.41757
H     6.67230  -5.85839  -0.91137
C     6.26204  -4.78044   0.89471
H     7.10477  -5.19122   1.42954
C     5.41483  -3.87818   1.51307
H     5.59518  -3.58171   2.53540
C     4.33042  -3.34443   0.83961
H     3.68413  -2.64513   1.33926
O    -1.18770  -0.11832  -1.13924
