61

Ni    0.00000   0.00000   0.00000
N     1.64350   0.42787   1.00318
C     2.84091   0.13338   0.50765
C     2.95676  -0.04078  -0.98978
C     3.96536   0.10971   1.32095
C     3.83058   0.43521   2.66065
C     2.59335   0.83695   3.13196
C     1.50803   0.82539   2.26401
C     0.14671   1.28458   2.71671
N    -0.66674   1.78229   1.60418
C    -2.09028   2.01739   1.97436
C    -2.82531   2.61450   0.76725
C    -2.76551   0.68251   2.30000
C    -2.23893   2.95847   3.18117
H     4.92671  -0.15533   0.90918
H     4.68454   0.40402   3.32018
H     2.46105   1.14776   4.15644
H     0.28474   2.04037   3.50605
H    -0.36026   0.42000   3.15468
H     3.88362  -0.57533  -1.21785
H     3.07742   0.97514  -1.39303
H    -2.57377   3.65791   0.59295
H    -2.60221   2.04399  -0.12955
H    -3.89713   2.55877   0.93534
H    -2.37043   0.21934   3.20022
H    -3.82930   0.84265   2.45285
H    -2.64730  -0.00953   1.47185
H    -1.66270   3.87500   3.06170
H    -3.28469   3.23465   3.28656
H    -1.92861   2.47180   4.10303
Br   -1.82085  -0.36476  -1.27918
N     1.78237  -0.66667  -1.60387
N     0.42797   1.64358  -1.00285
C     0.13339   2.84096  -0.50731
C    -0.04092   2.95674   0.99011
H    -0.57548   3.88361   1.21819
H     0.97497   3.07744   1.39336
C     0.10961   3.96540  -1.32062
C     0.43503   3.83061  -2.66036
C     0.83697   2.59343  -3.13163
C     0.82552   1.50812  -2.26367
C     1.28462   0.14677  -2.71637
C     2.01737  -2.09026  -1.97389
C     2.61440  -2.82523  -0.76669
H     3.65776  -2.57365  -0.59222
H     2.04379  -2.60208   0.12999
H     2.55867  -3.89706  -0.93467
C     0.68257  -2.76555  -2.29974
H     0.21951  -2.37052  -3.20004
H     0.84264  -3.82937  -2.45242
H    -0.00956  -2.64724  -1.47173
C     2.95860  -2.23900  -3.18055
H     3.87520  -1.66292  -3.06094
H     3.23462  -3.28481  -3.28589
H     2.47210  -1.92859  -4.10249
H     2.04038   0.28477  -3.50574
H     0.42002  -0.36021  -3.15431
H     1.14784   2.46114  -4.15609
H     0.40403   4.68461  -3.31983
H    -0.15544   4.92675  -0.90885
O    -0.26725  -1.33175   0.93676
