39

Pd    0.00000   0.00000   0.00000
N    -0.17927  -1.06642   1.59665
C     0.37349  -0.66572   2.73754
H     0.81393   0.33038   2.76131
C     0.41725  -1.47356   3.86754
C    -0.17515  -2.73195   3.80631
H    -0.19215  -3.37993   4.67024
C    -0.77434  -3.12742   2.62014
H    -1.25402  -4.08966   2.53659
C    -0.74828  -2.27081   1.53363
H    -1.20309  -2.54239   0.58160
C     1.06931  -0.92509   5.10317
O     0.94961   0.23625   5.42907
N     1.78224  -1.83499   5.80244
H     1.92899  -2.75507   5.41926
C     2.52683  -1.47922   6.98599
H     2.24913  -2.12756   7.81818
H     2.27887  -0.44748   7.22938
H     3.60128  -1.55973   6.81060
Cl    2.23071  -0.51109  -0.02799
N     0.17917   1.06614  -1.59685
C    -0.37361   0.66568  -2.73783
H    -0.81424  -0.33031  -2.76181
C    -0.41724   1.47371  -3.86774
C     0.17537   2.73200  -3.80629
H     0.19260   3.38008  -4.67014
C     0.77451   3.12721  -2.62001
H     1.25435   4.08935  -2.53631
C     0.74825   2.27047  -1.53362
H     1.20301   2.54187  -0.58152
C    -1.06939   0.92548  -5.10350
O    -0.94986  -0.23578  -5.42954
N    -1.78215   1.83566  -5.80265
H    -1.92890   2.75569  -5.41931
C    -2.52656   1.48019  -6.98635
H    -2.24920   2.12880  -7.81832
H    -2.27837   0.44871  -7.23023
H    -3.60098   1.56023  -6.81114
O    -1.60829   0.36809   0.01990
