28

Hg    0.00000   0.00000   0.00000
I    -2.26836  -0.58347  -1.15162
N     1.40991  -2.14333  -1.03424
N     0.36015  -1.93505   1.34875
N    -0.86332  -0.51688   2.61316
C    -0.38206  -2.72852   3.49905
C     1.63583  -3.16541  -0.20033
C     0.95019  -3.08319   1.10128
C    -0.29574  -1.73149   2.49495
C     1.99073  -2.14078  -2.21834
H     1.76959  -1.29281  -2.85341
C     3.08831  -4.20768  -1.79228
H     3.74827  -5.01194  -2.08162
C     0.90258  -4.14107   2.03859
H     1.36932  -5.08679   1.81744
C     2.47872  -4.21840  -0.54811
H     2.67176  -5.02637   0.13874
C     0.24482  -3.96116   3.22510
H     0.19327  -4.75404   3.95785
C     2.83905  -3.15175  -2.65103
H     3.29039  -3.10368  -3.62879
C    -1.09351  -2.40251   4.67040
H    -1.18226  -3.13284   5.46197
C    -1.51836  -0.24750   3.70952
H    -1.96351   0.73664   3.76958
C    -1.65921  -1.15934   4.77291
H    -2.21237  -0.86716   5.65125
O     1.34832   0.89899   0.31040
