45

Cd    0.00000   0.00000   0.00000
Br    1.82826  -1.06323  -1.37520
O    -1.61433  -1.33749  -1.48278
O    -1.83316   1.76194   0.31689
N    -0.46213  -2.21883   0.88469
C    -0.67468  -3.05847  -0.17968
O    -1.83115   3.82562   1.18329
N     0.67000   2.19673  -0.81016
C    -1.33086  -2.51347  -1.36479
C     0.22468  -2.89368   1.75680
C    -1.28059   2.83008   0.49424
C     0.05258   3.13173  -0.01824
O    -1.58013  -3.41699  -2.30866
N     0.46908  -4.15186   1.31377
N     2.06437   3.84285  -0.44259
C     0.92372   4.17400   0.22595
C    -0.08715  -4.28077   0.07589
C     1.86756   2.64300  -1.04357
C     0.03766  -5.51388  -0.73230
H     1.04257  -5.57704  -1.15095
H    -0.67463  -5.49116  -1.55024
H    -0.13679  -6.39612  -0.11804
C    -3.09074   3.53961   1.80033
C     0.80253   5.39638   1.05063
C    -2.12651  -2.91122  -3.53159
C    -2.19211  -4.05182  -4.52868
C    -3.45146   4.70382   2.70273
H    -2.68924   4.83218   3.46632
H    -4.40571   4.50911   3.18311
H    -3.52614   5.62072   2.12391
H     0.55858  -2.51314   2.70350
H     1.01435  -4.85697   1.78464
H     2.60835   2.13558  -1.63196
H    -2.99669   2.60796   2.36835
H     1.32652   6.22929   0.58483
H     2.91919   4.37715  -0.43822
H    -1.48261  -2.10192  -3.89196
H    -3.12025  -2.49617  -3.32967
H     1.23925   5.21767   2.03383
H    -0.24409   5.64940   1.18486
H    -3.84243   3.39065   1.01687
H    -1.19605  -4.44768  -4.70726
H    -2.82383  -4.85018  -4.14771
H    -2.60362  -3.69124  -5.46672
O     0.52793   0.47757   1.48853
