48

Pd    0.00000   0.00000   0.00000
Cl    2.17877  -0.21018  -0.51116
P     0.22245  -1.88806   1.20563
N    -0.71532  -1.94996   2.60829
H    -0.35513  -2.52849   3.36536
C    -1.24310  -0.69951   3.12257
H    -0.77040   0.16414   2.60792
C    -0.91338  -0.57424   4.60267
O    -0.29290  -1.40917   5.21121
O    -1.38512   0.54826   5.12518
C    -1.11165   0.76839   6.50624
H    -1.62861   1.68566   6.77368
H    -0.03715   0.87424   6.66446
H    -1.47648  -0.07006   7.10207
C    -2.76148  -0.61456   2.88418
H    -3.26260  -1.38670   3.47265
H    -3.11358   0.36367   3.21194
C    -3.09372  -0.83261   1.41602
H    -4.16765  -0.73679   1.25561
H    -2.75828  -1.81886   1.09029
S    -2.29174   0.43211   0.34325
C    -2.88587  -0.19090  -1.25253
H    -2.36284   0.38627  -2.01434
H    -3.95735  -0.01842  -1.31866
H    -2.65946  -1.25202  -1.34752
C     1.79654  -2.67412   1.64682
C     2.33029  -2.52540   2.92240
H     1.79296  -1.97539   3.68352
C     3.56294  -3.07857   3.22071
H     3.97465  -2.96450   4.21263
C     4.27064  -3.76535   2.24875
H     5.23537  -4.19006   2.48355
C     3.74778  -3.89762   0.97187
H     4.30606  -4.42159   0.21056
C     2.51639  -3.35088   0.66680
H     2.11152  -3.43362  -0.33164
C    -0.54173  -3.15150   0.12822
C    -0.56053  -2.89813  -1.24297
H    -0.10362  -1.97616  -1.62795
C    -1.13710  -3.81295  -2.10737
H    -1.14746  -3.62053  -3.16996
C    -1.70451  -4.97431  -1.60590
H    -2.15799  -5.68571  -2.27979
C    -1.69156  -5.22543  -0.24277
H    -2.13433  -6.13206   0.14260
C    -1.10838  -4.31902   0.62506
H    -1.09277  -4.50537   1.68916
O    -0.15513   1.30074  -1.00326
