24

Pt    0.00000   0.00000   0.00000
I    -1.91279   1.65165   0.59425
S     1.56150   0.00926   2.54104
C     2.75572  -1.26906   1.96419
H     3.70412  -1.02233   2.44524
H     2.42881  -2.24019   2.33199
C     2.98860  -1.28678   0.46523
H     3.71733  -2.06116   0.21609
H     3.37331  -0.32082   0.13170
S     1.56007  -1.57012  -0.63241
C     0.89045  -3.19296  -0.09239
H     0.35511  -3.54087  -0.97791
H     1.74288  -3.85073   0.08294
C    -0.04162  -3.16790   1.10501
H     0.50326  -3.19814   2.04506
H    -0.71493  -4.02646   1.06912
S    -1.13217  -1.67836   1.13995
C    -1.01435  -1.17545   2.89100
H    -1.56612  -0.23376   2.91342
H    -1.56976  -1.92269   3.46186
C     0.36461  -0.99036   3.50770
H     0.84518  -1.93985   3.74324
H     0.23297  -0.44268   4.44204
O     0.86419   1.09770  -0.87791
