53

Hf    0.00000   0.00000   0.00000
Cl    0.65102   2.20440   0.32687
P     0.21612  -1.91658  -1.79839
P     0.71316  -0.95912   2.30082
C     0.72801  -0.27896  -2.32398
C     1.93456   0.13389  -1.71751
C     2.40272  -0.80921  -0.76751
C     1.58656  -1.93964  -0.68197
H     1.83436  -2.80088  -0.07437
C     2.74813   1.32291  -2.14514
H     3.79176   1.02904  -2.25464
H     2.70096   2.12805  -1.41104
H     2.39333   1.70400  -3.09999
C     3.66791  -0.62926   0.01911
H     3.72606   0.37850   0.43042
H     4.53873  -0.77973  -0.62085
H     3.71709  -1.34838   0.83453
C    -0.04096   0.47015  -3.32105
C    -0.61990  -0.19965  -4.39770
H    -0.46654  -1.26726  -4.49013
C    -1.36985   0.48732  -5.33244
H    -1.81223  -0.04434  -6.16183
C    -1.55666   1.85365  -5.20327
H    -2.14537   2.39086  -5.93169
C    -0.99724   2.52732  -4.12965
H    -1.15624   3.58933  -4.01583
C    -0.24587   1.84595  -3.19050
H     0.15734   2.37651  -2.33707
C    -0.28344   0.42178   2.83719
C    -1.63590   0.27387   2.51822
C    -1.91198  -0.93835   1.84108
C    -0.75833  -1.68122   1.56436
H    -0.78939  -2.69775   1.18291
C    -2.70727   1.29025   2.77782
H    -3.36444   1.35794   1.91161
H    -2.27412   2.27072   2.95962
H    -3.31529   1.00821   3.63850
C    -3.29291  -1.40435   1.49539
H    -3.77739  -0.71373   0.80572
H    -3.90283  -1.46083   2.39703
H    -3.25937  -2.38837   1.03243
C     0.33939   1.47406   3.64017
C     1.66066   1.84586   3.38456
H     2.19428   1.36620   2.57134
C     2.28424   2.81980   4.13684
H     3.30294   3.10127   3.91365
C     1.60535   3.43689   5.17534
H     2.08905   4.20432   5.76109
C     0.30872   3.05050   5.46648
H    -0.21856   3.50731   6.29156
C    -0.31898   2.07588   4.71275
H    -1.31322   1.75534   4.98001
O    -1.47401   0.49236  -0.55441
