30

Zn    0.00000   0.00000   0.00000
Br    2.24568  -0.29457  -0.69260
O    -0.88563  -1.33122   0.88727
N     0.16945   1.31186   1.61808
N     1.54034   3.21604  -0.69618
H     1.08092   4.12870  -0.75863
H     0.80921   2.52947  -1.06225
C    -0.66674  -0.43574   3.10508
C    -1.02294  -1.44672   2.15801
C    -1.57747  -2.65138   2.66318
H    -1.84586  -3.40470   1.93757
C    -1.75886  -2.85912   4.00056
H    -2.17932  -3.79154   4.34875
C    -1.40397  -1.87088   4.92771
H    -1.55018  -2.04107   5.98307
C    -0.87671  -0.69366   4.47952
H    -0.60300   0.07732   5.18769
C    -0.14535   0.84052   2.77914
H    -0.01561   1.50529   3.64321
C     0.58574   2.69820   1.55962
H     0.76731   3.07622   2.57512
H    -0.23711   3.28310   1.12814
C     1.85071   2.91144   0.71771
H     2.43347   3.73899   1.12705
H     2.46449   2.00806   0.73850
C     2.71445   3.17879  -1.58036
H     3.46367   3.89386  -1.24782
H     2.40720   3.41495  -2.59543
H     3.13568   2.17349  -1.56540
O    -0.69215   1.04908  -1.06905
