43

Cd    0.00000   0.00000   0.00000
I    -2.33763  -1.36011   0.33720
C     1.25570  -0.10162   3.19768
H     2.01440  -0.66474   2.66805
C     1.28207  -0.00545   4.58082
H     2.05764  -0.49684   5.14585
C     0.29299   0.73515   5.20701
H     0.28039   0.84400   6.28144
C    -0.68282   1.33636   4.43150
H    -1.45415   1.93529   4.88926
C    -0.64203   1.17404   3.04744
C    -1.65629   1.77965   2.16432
C    -2.96191   2.01387   2.59263
H    -3.27503   1.73115   3.58446
C    -3.86693   2.56192   1.70101
H    -4.89100   2.73077   1.99776
C    -3.44036   2.87610   0.42078
H    -4.11534   3.30518  -0.30243
C    -2.12507   2.59897   0.08142
H    -1.74219   2.81373  -0.90898
C     1.99034   2.69681  -0.11075
H     1.57569   2.91784   0.86567
C     3.29543   3.03683  -0.43249
H     3.93040   3.52236   0.29135
C     3.76510   2.71087  -1.69487
H     4.78430   2.92797  -1.97723
C     2.91045   2.08884  -2.58760
H     3.26062   1.79688  -3.56449
C     1.61033   1.79508  -2.17865
C     0.64831   1.11051  -3.06263
C     0.72690   1.20801  -4.45129
H     1.48862   1.81401  -4.91580
C    -0.19929   0.53116  -5.22553
H    -0.15483   0.58791  -6.30319
C    -1.17996  -0.21626  -4.59442
H    -1.91730  -0.76496  -5.15800
C    -1.19487  -0.24418  -3.20787
H    -1.94852  -0.81053  -2.67425
N     0.32565   0.47253   2.45211
N    -1.25950   2.06005   0.92228
N     1.17353   2.08794  -0.95242
N    -0.31112   0.40027  -2.46375
O     1.44201  -0.77817  -0.19375
