60

Cd    0.00000   0.00000   0.00000
N    -1.79698   1.23294  -1.00554
C    -3.10339   1.18619  -0.60478
C    -3.97320   0.10382  -0.49111
H    -3.63828  -0.89270  -0.73581
C    -5.24489   0.36526  -0.03198
H    -5.94739  -0.44675   0.07862
C    -5.65348   1.65926   0.31109
H    -6.65903   1.81013   0.67413
C    -4.80552   2.74255   0.21013
H    -5.11666   3.73607   0.49464
C    -3.52499   2.49095  -0.26029
N    -2.43311   3.30476  -0.46731
C    -2.29668   4.62334   0.01953
C    -3.12029   5.63384  -0.45754
H    -3.85386   5.41535  -1.21974
C    -2.98322   6.91520   0.04859
H    -3.62042   7.70594  -0.31817
C    -2.03344   7.18113   1.02076
H    -1.93144   8.18214   1.41217
C    -1.22159   6.16398   1.49856
H    -0.49221   6.36854   2.26715
C    -1.34956   4.87826   1.00596
H    -0.74463   4.06540   1.38456
C    -1.42724   2.49389  -0.90536
C    -0.06694   2.90939  -1.21566
C     0.33245   4.19262  -1.59593
H    -0.38432   4.98797  -1.72139
C     1.68100   4.40719  -1.82803
H     2.02357   5.37926  -2.15062
C     2.59870   3.38685  -1.62869
H     3.65004   3.55952  -1.79021
C     2.11545   2.14005  -1.22642
N     0.81227   1.92758  -1.09189
N     2.30136  -0.19993  -0.70196
C     2.89889   0.95982  -0.88619
N     4.25337   0.87489  -0.70958
C     5.20968   1.91120  -0.64649
C     5.06724   2.92460   0.29546
H     4.20948   2.92437   0.95174
C     6.02691   3.91684   0.37697
H     5.91916   4.70422   1.10707
C     7.12663   3.89504  -0.46640
H     7.87509   4.66939  -0.39617
C     7.26950   2.87796  -1.39535
H     8.12730   2.85839  -2.05027
C     6.31350   1.88136  -1.48891
H     6.41261   1.08534  -2.21177
C     4.52316  -0.43803  -0.38781
C     5.69988  -1.10333  -0.07422
H     6.65104  -0.59305  -0.06030
C     5.59076  -2.44464   0.22895
H     6.48195  -3.00048   0.47883
C     4.35672  -3.10656   0.23219
H     4.33217  -4.15521   0.48608
C     3.18247  -2.45383  -0.06826
H     2.21998  -2.94252  -0.05021
C     3.27430  -1.09893  -0.38207
Cl   -0.69131  -2.14932   0.54130
O     0.06069   1.06868   1.25568
