59

Pd    0.00000   0.00000   0.00000
Cl    1.27312   1.83403   0.58176
P    -0.24409   1.24455  -1.82460
N     0.31759  -1.15830   1.84470
C    -1.28911   0.63889  -3.18681
C    -0.85937  -0.53035  -3.80882
H     0.04386  -1.01363  -3.45316
C    -1.59003  -1.07293  -4.84632
H    -1.26002  -1.98472  -5.32180
C    -2.75482  -0.45004  -5.26886
H    -3.33167  -0.87646  -6.07635
C    -3.18399   0.71261  -4.65256
H    -4.09369   1.19474  -4.98031
C    -2.45578   1.26009  -3.60966
H    -2.79618   2.16521  -3.12529
C    -1.03364   2.79127  -1.30807
C    -2.16603   2.60952  -0.51276
H    -2.51186   1.59459  -0.31205
C    -2.83289   3.70358   0.00278
H    -3.70945   3.56501   0.61885
C    -2.36517   4.98195  -0.26477
H    -2.88020   5.83933   0.14295
C    -1.23133   5.16144  -1.03881
H    -0.86118   6.15806  -1.23025
C    -0.55831   4.06920  -1.56123
H     0.34246   4.20877  -2.14089
C     1.27563   1.60378  -2.74625
C     1.24382   2.41378  -3.87757
H     0.30846   2.85457  -4.19643
C     2.40617   2.64011  -4.59089
H     2.38700   3.27816  -5.46249
C     3.59365   2.04527  -4.19295
H     4.49919   2.22698  -4.75291
C     3.61980   1.21267  -3.08628
H     4.54350   0.74003  -2.78668
C     2.46138   0.98866  -2.36396
H     2.46669   0.34698  -1.48530
C     0.76328  -2.49479   1.41491
H     1.03189  -3.11344   2.28105
H    -0.07922  -2.97137   0.90514
C     1.92872  -2.42845   0.42939
H     1.66144  -1.75854  -0.40961
H     2.11315  -3.42031   0.02290
H     2.84498  -2.07408   0.89804
C     1.31281  -0.50036   2.71183
H     0.95363   0.50826   2.92664
H     2.23384  -0.38376   2.13482
C     1.64220  -1.19674   4.03384
H     0.76626  -1.29883   4.66932
H     2.36894  -0.58674   4.56447
H     2.08147  -2.17949   3.88190
C    -1.00401  -1.24403   2.48794
H    -0.94044  -1.78385   3.44248
H    -1.65188  -1.81671   1.81658
C    -1.63375   0.13215   2.69757
H    -1.17325   0.67354   3.52124
H    -2.69342   0.01724   2.91395
H    -1.52756   0.73225   1.77561
O    -1.06578  -1.12472  -0.56712
