37

Hg    0.00000   0.00000   0.00000
Br    2.37683  -0.56545  -0.16337
N    -0.81094  -2.07850   1.06669
C    -0.00656  -3.12538   1.22490
H     1.01648  -3.00156   0.89432
C    -0.42090  -4.32646   1.78603
C    -1.74576  -4.41961   2.19346
H    -2.11114  -5.33556   2.63735
C    -2.60094  -3.33639   2.03457
C    -2.07597  -2.18504   1.46243
H    -2.69968  -1.31177   1.32260
C     0.53373  -5.46240   1.96347
H     0.89581  -5.48207   2.99141
H     1.39094  -5.35409   1.30454
H     0.04353  -6.41258   1.76275
C    -4.03622  -3.40496   2.44549
H    -4.61524  -3.92568   1.68255
H    -4.45091  -2.40792   2.56645
H    -4.14289  -3.95276   3.37909
N    -0.75733  -0.93127  -2.16509
C     0.06882  -1.63969  -2.92911
H     1.07736  -1.76744  -2.55802
C    -0.30601  -2.19479  -4.14564
C    -1.61434  -1.99114  -4.56617
H    -1.94898  -2.40324  -5.50839
C    -2.49240  -1.25572  -3.77967
C    -2.00637  -0.74681  -2.58265
H    -2.64852  -0.16205  -1.93697
C     0.66834  -2.96564  -4.97615
H     0.22889  -3.90383  -5.30954
H     1.57437  -3.17579  -4.41467
H     0.93759  -2.39025  -5.86146
C    -3.90749  -1.02387  -4.20095
H    -3.94229  -0.63833  -5.21820
H    -4.39725  -0.31615  -3.53797
H    -4.46249  -1.96135  -4.18082
O    -1.29912   0.96592   0.31903
