37

Hg    0.00000   0.00000   0.00000
I    -2.01120   1.60677   0.49627
N    -0.82390  -2.13717   1.02668
C    -0.00508  -3.16897   1.20251
H     1.01385  -3.04104   0.86146
C    -0.39518  -4.36250   1.79554
C    -1.71477  -4.46540   2.21736
H    -2.06162  -5.37447   2.68935
C    -2.58784  -3.40030   2.03679
C    -2.08368  -2.25615   1.43217
H    -2.72518  -1.39900   1.27515
C     0.57890  -5.47813   1.99435
H     0.93411  -5.47702   3.02495
H     1.43879  -5.36420   1.33970
H     0.10745  -6.43988   1.80392
C    -4.01850  -3.47921   2.46157
H    -4.60084  -4.00759   1.70629
H    -4.44138  -2.48556   2.58353
H    -4.11127  -4.02447   3.39814
N    -0.72738  -1.04123  -2.16256
C     0.11171  -1.77776  -2.88315
H     1.11087  -1.89960  -2.48594
C    -0.23431  -2.37050  -4.09028
C    -1.52996  -2.17330  -4.55100
H    -1.84231  -2.61235  -5.48862
C    -2.42333  -1.40983  -3.81006
C    -1.96372  -0.86702  -2.61765
H    -2.62204  -0.26173  -2.00843
C     0.75658  -3.17275  -4.86993
H     0.31905  -4.11746  -5.18726
H     1.64569  -3.37298  -4.27821
H     1.05480  -2.62622  -5.76428
C    -3.82584  -1.18249  -4.27362
H    -3.83195  -0.81927  -5.29970
H    -4.33067  -0.45808  -3.64028
H    -4.38535  -2.11718  -4.24778
O     1.62701  -0.27092  -0.04386
