52

Mo    0.00000   0.00000   0.00000
Cl   -2.34141   0.50365  -0.29251
O     0.19802   1.62717   1.23178
N    -0.04124  -0.56781  -1.97864
C    -0.20457  -1.87738  -2.32419
O    -0.11606  -0.61731   1.76863
N     0.24694   1.74470  -1.20229
C    -0.23586  -2.29842  -3.68896
H    -0.36608  -3.34640  -3.89798
N     0.39207   2.92276  -0.59359
C    -0.10238  -1.37415  -4.67387
H    -0.12225  -1.65668  -5.71475
N    -0.26130  -2.00348  -0.07833
C     0.06603  -0.01730  -4.32114
H     0.17363   0.73533  -5.08251
N    -0.37591  -2.69418   1.06610
C     0.09149   0.33279  -2.99108
C     0.26032   1.68547  -2.49524
C     0.43026   2.86970  -3.38411
H     0.56130   3.75578  -2.77002
H    -0.44739   2.99129  -4.01712
H     1.30067   2.73590  -4.02423
C     0.35652   2.77564   0.71408
C     0.50581   3.96081   1.56866
C     0.62612   5.23379   1.01427
H     0.60677   5.33855  -0.05827
C     0.76530   6.33218   1.84044
H     0.85745   7.31950   1.41258
C     0.78689   6.17142   3.21779
H     0.89632   7.03344   3.85941
C     0.66812   4.90688   3.77277
H     0.68582   4.78412   4.84564
C     0.52720   3.80377   2.95338
H     0.43402   2.80982   3.36573
C    -0.33193  -2.71100  -1.21648
C    -0.52238  -4.19212  -1.25796
H    -0.59678  -4.56725  -0.24195
H     0.32011  -4.66970  -1.75641
H    -1.43207  -4.44328  -1.80156
C    -0.28907  -1.86916   2.06662
C    -0.38164  -2.30278   3.45709
C    -0.56143  -3.64767   3.78046
H    -0.63004  -4.37036   2.98360
C    -0.64807  -4.02772   5.10530
H    -0.78737  -5.06813   5.35875
C    -0.55707  -3.07779   6.11233
H    -0.62578  -3.38094   7.14662
C    -0.37828  -1.74044   5.79444
H    -0.30812  -1.00315   6.58036
C    -0.29036  -1.35035   4.47243
H    -0.15211  -0.31252   4.20340
O     1.64150  -0.08117  -0.14627
