37

Os    0.00000   0.00000   0.00000
S     1.49470  -0.68314  -1.74037
S    -1.92805   0.37211   1.54255
N     0.98811   0.83885   1.04253
N     0.52456  -1.89521   0.84421
N    -1.72538  -1.42950  -0.89247
C     1.97226  -2.21142  -1.05384
C     2.88673  -3.00891  -1.72158
H     3.29974  -2.64878  -2.65053
C     3.27337  -4.24520  -1.20906
H     3.98818  -4.84067  -1.75611
C     2.75926  -4.70470  -0.02226
H     3.05793  -5.65946   0.38176
C     1.83276  -3.92754   0.69552
C     1.42174  -2.66439   0.17598
C     1.28607  -4.33911   1.92695
H     1.58462  -5.29082   2.34138
C     0.39737  -3.52699   2.57856
H    -0.03197  -3.80375   3.52760
C     0.04054  -2.30487   2.00049
H    -0.65633  -1.64302   2.50015
C    -3.22708  -0.33338   0.62773
C    -4.52742  -0.09328   1.03457
H    -4.68545   0.53924   1.89356
C    -5.61213  -0.64460   0.35654
H    -6.61224  -0.42974   0.70136
C    -5.41669  -1.44209  -0.74160
H    -6.25031  -1.86654  -1.28044
C    -4.11266  -1.71861  -1.18743
C    -2.99282  -1.16783  -0.49826
C    -3.85426  -2.53200  -2.30867
H    -4.68637  -2.94869  -2.85829
C    -2.56137  -2.77827  -2.68063
H    -2.32145  -3.39405  -3.53294
C    -1.52618  -2.20549  -1.93409
H    -0.49837  -2.39200  -2.21983
O    -0.65510   1.14903  -0.98644
