49

C    -0.77093   2.76119  -0.44110
H    -1.73226   2.33209  -0.18601
C    -0.67426   4.02371  -1.00262
C     0.60293   4.49663  -1.29016
H     0.72357   5.46946  -1.74447
C     1.72530   3.74018  -0.97802
C     1.52325   2.48695  -0.39474
C     2.67339   1.61226   0.02938
H     3.44438   2.22369   0.50176
H     2.28702   0.87143   0.75264
C     2.63549  -0.18524  -1.66669
H     2.25169  -0.85638  -0.87714
H     3.38188  -0.70854  -2.26706
C     1.47450   0.21523  -2.53807
C     1.66007   0.72616  -3.82525
C     0.52756   1.02703  -4.57049
H     0.63464   1.42793  -5.56804
C    -0.74455   0.79571  -4.05399
C    -0.82393   0.30083  -2.76319
H    -1.78001   0.08934  -2.30003
C    -1.89131   4.84706  -1.27373
H    -2.78559   4.23021  -1.27694
H    -1.80488   5.35925  -2.22937
H    -2.00282   5.60408  -0.49785
C     3.10023   4.26111  -1.23694
H     3.54210   4.61780  -0.30649
H     3.06769   5.09133  -1.93775
H     3.75400   3.48362  -1.62331
C     3.02768   0.92116  -4.39138
H     2.99216   1.57904  -5.25587
H     3.43613  -0.03799  -4.70987
H     3.71079   1.32905  -3.65103
C    -1.97266   1.06503  -4.86139
H    -2.86634   0.97997  -4.24982
H    -2.04422   0.34714  -5.67756
H    -1.93221   2.06122  -5.29762
C     5.17893  -0.48304   0.38093
H     4.72028  -1.40619   0.05322
H     4.72179  -0.11283   1.28868
H     6.24356  -0.61651   0.51957
N     0.29581   2.01187  -0.17003
N     3.31399   0.96290  -1.09762
N     0.25419   0.04453  -2.02438
O     5.48842   2.00918  -0.46310
O     5.45128   0.23040  -2.15584
S     4.96218   0.75658  -0.91663
Cl   -0.27924   0.15649   2.22962
Pt    0.00000   0.00000   0.00000
O    -0.24146  -1.63220  -0.01020
