56

C     0.64633   1.01408   1.53567
C     1.78474   0.67953   2.25583
C     0.88319   2.48842   3.18920
C     2.85471  -0.89885   0.70117
H     2.55541  -0.25462  -0.12994
C     3.53910  -2.07096   0.42901
H     3.71794  -2.34301  -0.60010
C     3.99053  -2.87517   1.47153
C     3.74507  -2.48012   2.78756
H     4.08876  -3.11916   3.58550
C     3.05855  -1.31739   3.05645
H     2.83255  -1.06700   4.08257
C     2.60556  -0.50209   2.01808
C    -1.09755   2.76160   1.67354
H    -0.87971   3.26563   0.72447
H    -1.41771   3.49614   2.41577
C    -2.15792   1.70382   1.46514
C    -2.71258   1.05123   2.55946
H    -2.41387   1.33010   3.56006
C    -3.63393   0.03472   2.38337
H    -4.05995  -0.48979   3.22318
C    -3.99195  -0.31998   1.09636
C    -3.46465   0.31512  -0.01490
H    -3.78934   0.01627  -1.00063
C    -2.52791   1.32364   0.17135
H    -2.14240   1.87707  -0.68194
C     0.16238  -2.32491  -1.65754
H     0.76089  -2.59864  -0.79130
C     0.04896  -3.17106  -2.74721
H     0.57664  -4.11206  -2.75638
C    -0.75136  -2.79114  -3.81349
H    -0.86369  -3.43050  -4.67631
C    -1.40077  -1.56901  -3.74607
H    -2.03024  -1.22752  -4.55281
C    -1.22782  -0.77943  -2.62198
H    -1.69770   0.19458  -2.54959
C     0.77954   3.53477   4.10098
H    -0.04272   4.22812   4.03525
C     1.74784   3.66402   5.06902
H     1.69259   4.46287   5.78968
C     2.82285   2.76049   5.10570
H     3.59682   2.87294   5.84659
C     2.90068   1.74114   4.20284
H     3.71685   1.03823   4.17100
C     4.90307  -4.52192   0.01715
H     3.96391  -4.70095  -0.51613
H     5.43165  -5.46599   0.13992
H     5.52585  -3.83294  -0.56299
Cl    0.66861   1.70877  -1.40053
F    -4.90835  -1.28996   0.91400
N     1.92872   1.59055   3.26804
N     0.12106   2.12471   2.13794
N    -0.46800  -1.15175  -1.59570
O     4.67319  -4.04194   1.31916
Pd    0.00000   0.00000   0.00000
O    -0.48977  -1.18168   1.04223
