52

Pd    0.00000   0.00000   0.00000
Cl    1.63449   0.04118  -1.60965
C    -1.22334   1.08230  -1.04991
N    -1.24291   2.41434  -1.18910
C    -3.03779   1.61008  -2.24266
C    -2.67047  -0.77918  -1.55463
C    -4.62909   2.87401  -3.44856
H    -5.52159   2.93307  -4.05206
C    -2.79170   4.02833  -2.37048
H    -2.25603   4.93469  -2.14053
C    -4.18696   1.63694  -3.01722
H    -4.70817   0.73068  -3.28167
C    -1.68731  -1.76220  -1.70402
H    -0.68796  -1.49702  -2.05193
C    -3.94810   4.04631  -3.12791
H    -4.32892   4.98986  -3.48691
C    -2.34076   2.79295  -1.93355
C    -3.31308  -3.41754  -1.13869
C    -3.96964  -1.12887  -1.20573
H    -4.71282  -0.36052  -1.06142
C    -2.01498  -3.09155  -1.49386
H    -1.28037  -3.87304  -1.61333
C    -4.29775  -2.45640  -1.00079
H    -5.29706  -2.74699  -0.71916
C     2.19111  -0.56599   1.81693
H     2.33623   0.50537   1.68413
C     2.79035  -2.67060   2.76581
H     3.41689  -3.27818   3.40108
C     3.01687  -1.30838   2.64370
H     3.82018  -0.82693   3.17845
C     0.96121  -2.42179   1.25473
H     0.11836  -2.81712   0.68957
C     1.74131  -3.23640   2.05706
H     1.52805  -4.29133   2.12604
C    -0.26735   3.29734  -0.58617
H     0.43299   2.64678  -0.02071
H    -0.77671   3.96538   0.11676
C     0.47447   4.09071  -1.63094
C     1.18422   3.42076  -2.62134
H     1.23415   2.34076  -2.60733
C     1.84825   4.12850  -3.60545
H     2.40566   3.62310  -4.37743
N     1.18834  -1.11626   1.13843
N    -2.31128   0.57867  -1.67922
F    -3.62626  -4.71104  -0.93306
F     2.43619   6.21003  -4.54227
C     1.79494   5.51062  -3.58340
C     0.44263   5.47864  -1.62673
H    -0.09692   6.00478  -0.85204
C     1.10558   6.20041  -2.60335
H     1.09211   7.27874  -2.61284
O    -1.14619  -0.03248   1.18646
