25

Pt    0.00000   0.00000   0.00000
Cl   -0.73543   2.15808   0.08158
O    -1.77249  -0.82509   0.52700
O    -2.80414  -2.77688   0.52250
O     1.77684   0.59867  -0.76424
O     2.85376   0.68867  -2.68953
N     0.60017  -2.05026  -0.21968
N    -0.54824  -0.16064  -2.07046
C     0.63045  -2.29872  -1.66756
C    -0.53995  -1.59925  -2.36920
C    -0.40216  -2.81253   0.53064
C    -1.79923  -2.11056   0.52555
C     0.45357   0.63739  -2.78345
C     1.83359   0.64282  -2.04796
H     1.52736  -2.20379   0.17679
H    -1.48067   0.22052  -2.23103
H     1.57627  -1.91558  -2.06254
H     0.58056  -3.37492  -1.87591
H    -1.48477  -2.02830  -2.02193
H    -0.46127  -1.76882  -3.45050
H    -0.51561  -3.83122   0.14592
H    -0.10032  -2.85904   1.58078
H     0.60119   0.28809  -3.81056
H     0.12739   1.68109  -2.80480
O     0.49253   0.01817   1.57467
