40

Mn    0.00000   0.00000   0.00000
N     0.41921   1.49567  -1.15578
N    -0.75086   1.71613   1.13840
O     0.58660  -1.14341  -1.18766
O    -1.20749  -0.78013   0.87460
C     0.78931  -1.09987  -2.45426
C     0.95899  -2.28840  -3.20523
H     0.88530  -3.22793  -2.67810
C     1.21368  -2.24005  -4.54682
H     1.34423  -3.15664  -5.10261
C     1.31715  -1.00789  -5.21381
H     1.52964  -0.99244  -6.27174
C     1.14977   0.15896  -4.52544
H     1.23092   1.11009  -5.03215
C     0.86987   0.16111  -3.13888
C     0.67594   1.36993  -2.45155
H     0.72896   2.27426  -3.05249
C     0.43099   2.76978  -0.59527
C     1.05741   3.89050  -1.14430
H     1.64960   3.80132  -2.04166
C     0.95571   5.11807  -0.52334
H     1.44793   5.97639  -0.95415
C     0.22186   5.25697   0.64898
H     0.12828   6.22675   1.11333
C    -0.36979   4.15830   1.23291
H    -0.93457   4.27928   2.14398
C    -0.23707   2.89514   0.64769
C    -1.22887   1.59379   2.34565
H    -1.13091   2.40456   3.06651
C    -1.90557   0.42464   2.78462
C    -2.58809   0.39548   4.01189
H    -2.59865   1.29082   4.61649
C    -3.24747  -0.73281   4.43127
H    -3.77396  -0.73591   5.37315
C    -3.23670  -1.88388   3.64014
H    -3.75333  -2.76999   3.97690
C    -2.56840  -1.90051   2.43951
H    -2.54081  -2.78832   1.82472
C    -1.88851  -0.75869   1.98412
O     1.44779   0.16360   0.77437
