39

Mn    0.00000   0.00000   0.00000
O     1.39987   0.72183   0.87898
O    -0.29501   1.29022  -1.24085
O     1.72502  -0.72235  -1.40555
H     2.50506  -0.27200  -1.05841
H     1.52963  -0.31758  -2.25907
N     0.13127  -1.50996   1.25660
N    -1.14568  -1.19848  -0.91603
C     1.68535   0.73182   2.14536
C     2.44720   1.77987   2.69714
H     2.72377   2.59855   2.04950
C     2.78612   1.78071   4.02865
H     3.34767   2.60891   4.43550
C     2.41448   0.72406   4.85964
H     2.69170   0.73554   5.90244
C     1.69353  -0.32612   4.34408
H     1.39994  -1.14963   4.97944
C     1.30625  -0.34735   2.99767
C     0.58494  -1.45750   2.46382
H     0.44772  -2.31561   3.12529
C    -0.51420  -2.72645   0.80901
H    -0.88797  -3.32299   1.64939
H     0.21673  -3.31837   0.24307
C    -1.65110  -2.29823  -0.12325
H    -2.00103  -3.13087  -0.74501
H    -2.48159  -1.91329   0.48415
C    -1.51837  -1.10527  -2.15950
H    -2.13420  -1.89951  -2.58475
C    -1.21625  -0.01023  -3.01050
C    -1.58754  -0.04151  -4.36765
H    -2.06421  -0.93451  -4.74735
C    -1.34188   1.01717  -5.20117
H    -1.62079   0.96965  -6.24247
C    -0.73427   2.17276  -4.69486
H    -0.54725   3.00805  -5.35364
C    -0.38415   2.25761  -3.37438
H     0.07374   3.14830  -2.97050
C    -0.60138   1.17649  -2.48413
O    -1.23177   0.58555   0.92864
