33

Zn    0.00000   0.00000   0.00000
C     0.08501   1.48836   2.88613
H    -0.09530   2.34780   2.25599
C     0.16417   1.60389   4.26710
H     0.05931   2.56760   4.73865
C     0.37887   0.45811   5.01688
H     0.44726   0.50875   6.09360
C     0.50255  -0.75674   4.36428
H     0.66264  -1.67243   4.91104
C     0.41311  -0.77990   2.97538
C     0.55268  -1.98257   2.17529
C     0.94566  -3.30440   2.44372
H     1.18877  -3.74330   3.38887
C     0.97198  -3.91887   1.20824
H     1.22956  -4.92374   0.93951
C     0.60857  -3.07045  -1.14094
H     0.85854  -4.08404  -1.45486
H     1.37821  -2.35584  -1.48670
C    -0.69822  -2.62156  -1.74570
C    -1.34104  -3.40574  -2.69559
H    -0.92630  -4.35993  -2.98242
C    -2.51157  -2.94143  -3.27335
H    -3.02432  -3.53084  -4.01884
C    -3.00574  -1.71140  -2.87362
H    -3.91274  -1.30826  -3.29378
C    -2.30243  -0.99572  -1.91767
H    -2.63781  -0.02753  -1.57253
N     0.60540  -3.00296   0.29533
N     0.34814  -1.85432   0.87106
N     0.21329   0.33346   2.26053
N    -1.17667  -1.43543  -1.37425
Cl    1.94643  -0.07657  -1.12709
O    -1.07525   1.24515  -0.12621
