61

Cd    0.00000   0.00000   0.00000
Cl    1.59603  -1.69980  -0.66286
S     0.79654  -3.24025   1.58581
O     1.96622   1.34421  -0.72161
H     2.39541   0.47189  -0.82229
N     0.78421  -0.44123   2.04948
N     0.60435   0.24649   3.18667
C     0.40669  -0.58366   4.18494
N     0.45928  -1.86092   3.69119
N     0.33470  -3.11331   4.14698
C     0.10725   1.14369   5.89171
H     0.21218   1.87218   5.10389
C    -0.10288   1.52172   7.20259
H    -0.16159   2.56950   7.45674
C    -0.24010   0.55998   8.19239
H    -0.40444   0.85901   9.21707
C    -0.16850  -0.78481   7.86714
H    -0.27720  -1.53325   8.63818
C     0.04148  -1.17648   6.55804
H     0.09635  -2.22377   6.30292
C     0.18199  -0.21054   5.56272
C     0.69502  -1.71586   2.35399
C     0.47116  -3.94768   3.18258
C     0.38467  -5.41177   3.36509
H     0.22631  -5.64421   4.41443
H     1.30158  -5.88408   3.01791
H    -0.43967  -5.80956   2.77575
C     2.65521   2.05761   0.29334
H     2.13287   3.00507   0.42728
H     3.68814   2.25373  -0.01340
H     2.64768   1.51160   1.24176
S    -0.79434   3.23959  -1.58932
O    -1.96784  -1.33978   0.72560
H    -2.39346  -0.46585   0.82790
N    -0.78463   0.43994  -2.04940
N    -0.60444  -0.24941  -3.18555
C    -0.40488   0.57925  -4.18468
N    -0.45666   1.85720  -3.69261
N    -0.33046   3.10887  -4.14993
C    -0.10490  -1.15056  -5.88884
H    -0.21116  -1.87793  -5.10017
C     0.10644  -1.53047  -7.19899
H     0.16471  -2.57863  -7.45169
C     0.24544  -0.57014  -8.18991
H     0.41065  -0.87064  -9.21402
C     0.17441   0.77513  -7.86652
H     0.28446   1.52247  -8.63843
C    -0.03676   1.16868  -6.55817
H    -0.09115   2.21635  -6.30451
C    -0.17903   0.20416  -5.56172
C    -0.69378   1.71410  -2.35544
C    -0.46715   3.94464  -3.18677
C    -0.37905   5.40842  -3.37107
H    -0.21930   5.63937  -4.42053
H    -1.29592   5.88199  -3.02553
H     0.44498   5.80621  -2.78130
C    -2.66308  -2.05015  -0.28717
H    -2.14498  -2.99963  -0.42327
H    -3.69570  -2.24229   0.02308
H    -2.65674  -1.50377  -1.23540
O    -1.08411   1.15928   0.45085
