69

Nb    0.00000   0.00000   0.00000
N    -1.96595  -0.82890  -0.98164
N    -2.00868  -2.14400  -1.28653
N     0.98505  -1.80920  -1.07778
N     0.35317  -2.99709  -1.11357
N    -0.65973  -1.84598   1.43027
N    -1.13527  -2.97547   0.88971
C     0.44905   1.08278  -2.00820
C    -0.07487   2.52414  -1.94497
C    -0.09008   0.37792  -3.26139
C     2.34247   2.46758   0.92482
C     1.65437   1.15890   0.73870
C     1.81601  -0.07145   1.12625
C     2.77736  -0.88620   1.92059
C    -3.03927  -0.25583  -1.52428
C    -3.77917  -1.22054  -2.21425
C    -3.09464  -2.40632  -2.04070
C     0.44626   0.96287  -4.57187
C     2.21508  -1.99332  -1.56451
C     2.37287  -3.33447  -1.91644
C     1.16929  -3.94295  -1.61257
C    -0.86589  -1.89080   2.74072
C    -1.49108  -3.10262   3.05832
C    -1.64891  -3.76453   1.85491
C    -3.41299   1.17759  -1.38596
C    -3.44463  -3.74511  -2.58463
C     3.24280  -0.92957  -1.73163
C     0.80580  -5.37449  -1.77971
C    -0.49677  -0.78703   3.66851
C    -2.26744  -5.09322   1.60548
B    -1.09140  -3.18912  -0.62880
H    -1.46346  -4.27433  -0.89655
H     1.53680   1.16703  -2.15812
H     0.21426   3.00460  -1.00983
H    -1.15965   2.54931  -2.02002
H     0.32869   3.12689  -2.76334
H     0.18940  -0.68268  -3.23398
H    -1.18221   0.43437  -3.28463
H     3.22612   2.35467   1.55778
H     1.66000   3.17884   1.39303
H     2.64732   2.87951  -0.03774
H     3.46528  -0.24415   2.47597
H     2.25126  -1.53385   2.62229
H     3.35796  -1.52612   1.25360
H    -4.68855  -1.06816  -2.75971
H     0.09963   0.37505  -5.42035
H     1.53501   0.95838  -4.57545
H     0.10720   1.98606  -4.71053
H     3.24482  -3.79592  -2.33376
H    -1.78955  -3.44317   4.02929
H    -2.79283   1.67260  -0.64290
H    -4.45553   1.24713  -1.07661
H    -3.31866   1.69052  -2.34380
H    -4.30427  -3.64994  -3.24295
H    -3.69385  -4.43962  -1.78400
H    -2.61194  -4.16142  -3.14821
H     3.11407  -0.14345  -0.98993
H     4.23492  -1.36695  -1.63689
H     3.16309  -0.49116  -2.72636
H     1.65133  -5.91258  -2.19987
H     0.54609  -5.81975  -0.82126
H    -0.04736  -5.48430  -2.44629
H     0.22363  -0.11362   3.20271
H    -0.08143  -1.19151   4.59041
H    -1.38559  -0.20740   3.92196
H    -2.57140  -5.53349   2.55141
H    -1.56419  -5.76331   1.11412
H    -3.14389  -4.99485   0.96679
O    -0.96841   0.98381   0.90378
