21

C    -1.57061   2.62315  -1.51589
H    -1.63572   2.04441  -2.44461
H    -0.54182   2.95509  -1.36582
H    -2.24895   3.48256  -1.56191
C    -3.20415   1.28947  -0.44578
H    -3.32797   0.67468  -1.34963
H    -3.92710   2.11765  -0.45843
C    -3.43548   0.42839   0.79189
H    -3.20242   1.01301   1.69435
H    -4.48641   0.10596   0.82387
C    -2.75209  -1.57709   1.82342
H    -2.48838  -1.07592   2.76176
H    -2.08227  -2.42097   1.65738
H    -3.78671  -1.93478   1.87785
Cl   -1.09181  -0.79919  -1.84261
Cl    0.94934  -1.93998   0.61139
Nb    0.00000   0.00000   0.00000
O     1.14066   1.06334  -0.63959
O    -1.88939   1.81513  -0.39322
O    -2.59172  -0.70581   0.71979
O    -0.29289   0.58007   1.51665
