42

Pd    0.00000   0.00000   0.00000
N    -1.56186   1.28932  -1.12316
H    -1.58580   1.24663  -2.14211
H    -2.26831   0.64235  -0.75159
C     1.27929  -1.23240   1.02131
H     0.69259  -2.11529   1.31001
H     1.69588  -0.75334   1.91436
H     2.09052  -1.54027   0.35372
P    -0.22508   1.63238   1.53415
C    -1.22185   2.90441   0.66648
C    -1.38032   4.18791   1.17665
H    -1.00983   4.41293   2.16633
C    -1.99019   5.17283   0.42241
H    -2.10763   6.16696   0.82599
C    -2.42750   4.88734  -0.86136
H    -2.88418   5.65968  -1.46164
C    -2.28844   3.61161  -1.37670
H    -2.63338   3.39049  -2.37745
C    -1.70194   2.60534  -0.61586
C    -0.84049   1.67092   3.24133
C    -2.15446   2.01664   3.53992
H    -2.81952   2.33751   2.74927
C    -2.60638   1.95699   4.84604
H    -3.62488   2.23498   5.07458
C    -1.75814   1.53880   5.85804
H    -2.11379   1.49485   6.87662
C    -0.45560   1.16735   5.56193
H     0.20256   0.82978   6.34890
C     0.00022   1.22441   4.25902
H     1.01254   0.92861   4.01712
C     1.36586   2.52099   1.61318
C     1.70754   3.44313   2.59575
H     1.03152   3.63942   3.41637
C     2.92609   4.09566   2.53281
H     3.19267   4.80748   3.30047
C     3.80309   3.83886   1.49173
H     4.75277   4.35116   1.44936
C     3.46641   2.92074   0.50921
H     4.15302   2.71597  -0.29849
C     2.25293   2.26158   0.56955
H     1.97970   1.51921  -0.19224
O     0.11843  -0.95419  -1.34089
