41

Ni    0.00000   0.00000   0.00000
N     0.28114  -1.78484  -0.99336
N    -0.00873  -1.07007   1.51158
N    -0.27717   1.53217   1.35151
C     0.49492  -2.80967   0.03294
C     0.80469  -4.12245  -0.26093
H     0.82135  -4.47853  -1.28080
C     1.12045  -4.99923   0.76446
H     1.36005  -6.02657   0.53931
C     1.17695  -4.53325   2.06843
H     1.49325  -5.19560   2.86100
C     0.84028  -3.23226   2.37565
H     0.94115  -2.87859   3.38875
C     0.41667  -2.35906   1.36100
C    -0.43295  -0.49573   2.67598
C    -0.86507  -1.15897   3.83561
H    -0.97357  -2.23130   3.83879
C    -1.20060  -0.43389   4.95902
H    -1.52343  -0.95855   5.84640
C    -1.13454   0.95040   4.96456
H    -1.37287   1.50632   5.85769
C    -0.81030   1.62325   3.79754
H    -0.81908   2.70357   3.79391
C    -0.50134   0.90698   2.65853
C    -0.88757  -2.14368  -1.81236
H    -0.74300  -3.11740  -2.28969
H    -1.04858  -1.39824  -2.59056
H    -1.77461  -2.19465  -1.17833
C     1.48673  -1.73765  -1.84098
H     2.33918  -1.41002  -1.24265
H     1.34758  -1.04536  -2.66851
H     1.70961  -2.72489  -2.25394
C     0.90029   2.41206   1.42159
H     0.76105   3.18709   2.18109
H     1.06916   2.89689   0.46051
H     1.78072   1.82223   1.68317
C    -1.47368   2.32810   1.02160
H    -2.33294   1.66368   0.91149
H    -1.32723   2.87493   0.09266
H    -1.69018   3.04987   1.81342
O     0.00336   0.95250  -1.34731
