39

Ru    0.00000   0.00000   0.00000
Cl   -1.93939  -1.02668   0.79246
S    -1.03462   0.45899  -1.96703
S     0.67345  -2.05808  -0.81842
O    -0.59375   1.79589   0.68298
N     0.78203  -0.05778   1.84372
O     1.46113  -2.88015   0.09275
O    -1.01555  -0.52462  -3.04558
C     1.48070  -1.03700   2.40384
H     1.65622  -1.91305   1.78891
C     1.96615  -0.96003   3.69823
H     2.52731  -1.78578   4.10380
C     1.72131   0.18158   4.45283
H     2.08866   0.26652   5.46377
C     0.99614   1.20565   3.87885
H     0.78172   2.10948   4.42551
C     0.53354   1.06432   2.56810
C    -0.24155   2.05868   1.84760
C    -0.61713   3.36990   2.47314
H     0.27771   3.92151   2.75508
H    -1.21783   3.20227   3.36510
H    -1.19035   3.95719   1.76045
C    -0.46280   2.02564  -2.68046
H     0.59005   1.90632  -2.91671
H    -0.58418   2.79240  -1.92345
H    -1.03852   2.23917  -3.57341
C    -2.76990   0.92298  -1.71475
H    -3.20509   1.19828  -2.66827
H    -2.78867   1.74304  -1.00559
H    -3.27512   0.05979  -1.29237
C     1.62602  -1.97905  -2.35832
H     2.49097  -1.34911  -2.17628
H     0.98782  -1.54502  -3.11947
H     1.93191  -2.98767  -2.60982
C    -0.67782  -3.11926  -1.39501
H    -0.24730  -4.06515  -1.70206
H    -1.17046  -2.60986  -2.21535
H    -1.36153  -3.25968  -0.56375
O     1.40817   0.63363  -0.58145
