45

Zn    0.00000   0.00000   0.00000
Cl   -1.96752   0.91342   0.50180
O    -0.16788  -1.32988  -1.55406
N     0.86921  -1.23114  -2.33700
C     1.92324  -2.01605  -2.12688
C     3.05825  -1.89150  -2.93580
C     3.10974  -0.96093  -3.93462
C     1.96981   0.87627  -5.14578
C     0.87201   1.67837  -5.29727
C    -0.24715   1.51225  -4.46981
C    -0.25857   0.54535  -3.49976
C     0.86159  -0.28182  -3.32678
C     1.99731  -0.12419  -4.15372
C     1.83380  -2.97344  -0.99616
H     3.89938  -2.53549  -2.73338
H     3.99028  -0.84630  -4.54748
H     2.83796   1.00028  -5.77572
H     0.86246   2.44863  -6.05364
H    -1.10419   2.15552  -4.59638
H    -1.11403   0.40761  -2.85595
H     1.63962  -2.42090  -0.07412
H     0.98819  -3.64498  -1.14446
H     2.74970  -3.54631  -0.89571
O     0.16694  -1.32962   1.55441
N    -0.87016  -1.23078   2.33734
C    -1.92408  -2.01593   2.12750
C    -3.05889  -1.89169   2.93676
C    -3.11030  -0.96113   3.93561
C    -1.99798  -0.12414   4.15442
C    -1.97045   0.87637   5.14642
C    -0.87255   1.67834   5.29798
C     0.24663   1.51209   4.47059
C     0.25790   0.54535   3.50037
C    -0.86239  -0.28162   3.32728
H     1.11334   0.40758   2.85653
H     1.10363   2.15547   4.59700
H    -0.86295   2.44859   6.05435
H    -2.83854   1.00034   5.77645
H    -3.99092  -0.84630   4.54831
H    -3.90006  -2.53561   2.73433
C    -1.83457  -2.97346   0.99691
H    -1.64145  -2.42095   0.07469
H    -0.98833  -3.64429   1.14466
H    -2.74999  -3.54712   0.89708
O     1.45815   0.67740  -0.37074
