36

Re    0.00000   0.00000   0.00000
N    -1.83913  -0.01200  -1.07151
N     0.30774   1.42079  -1.68417
C     1.86590  -0.11518   0.58392
O    -0.81105   2.17639   2.03850
O     2.97475  -0.29080   0.78232
C    -0.50772   1.35646   1.29972
C    -1.75507   0.49859  -2.31883
C    -0.56302   1.24430  -2.61582
N     1.41627   2.12395  -1.95844
O     2.02527   2.36119   0.20619
O    -0.76166  -2.37666   1.81222
C    -2.94471  -0.67682  -0.74492
H    -2.98860  -1.06593   0.26402
C     3.55273   3.12077  -1.45593
C    -0.46154  -1.46432   1.18670
C    -3.90367  -0.37425  -2.91362
H    -4.69921  -0.52947  -3.62586
C    -3.99325  -0.88170  -1.62187
H    -4.85970  -1.43741  -1.30220
C     2.29024   2.52218  -0.96620
C    -2.77245   0.33198  -3.26219
H    -2.65249   0.74808  -4.25065
C     3.64680   3.86886  -2.62711
H     2.77087   4.07686  -3.22612
C     4.68829   2.92857  -0.67099
H     4.59340   2.35826   0.24022
C     5.99509   4.18379  -2.23922
H     6.94384   4.59557  -2.54885
C     5.90454   3.45071  -1.06698
H     6.78222   3.28937  -0.46020
C     4.86517   4.39910  -3.01134
H     4.93260   4.98509  -3.91573
H    -0.42097   1.64738  -3.61769
H     1.64571   2.30170  -2.93404
O     0.46831  -1.02410  -1.20599
