59

Pd    0.00000   0.00000   0.00000
P     2.26890   0.10348  -0.06045
C    -2.11380  -0.16409  -0.13488
H    -2.23905  -0.81562  -1.00063
H    -2.76158  -0.39736   0.70551
C    -1.70584   1.16333  -0.32647
C    -0.76641   1.41441  -1.35128
H    -0.39416   2.42850  -1.46321
H    -0.85848   0.86704  -2.28912
C    -2.03235   2.22216   0.69371
H    -2.96736   2.70807   0.40799
H    -1.25472   2.98611   0.73810
H    -2.17075   1.78772   1.68589
C     2.69788  -1.42122  -1.04472
H     3.72850  -1.40374  -1.39906
H     2.52473  -2.26466  -0.37114
C     1.74651  -1.47502  -2.20455
C     0.45072  -1.97401  -2.03406
H     0.16227  -2.43138  -1.08614
C    -0.43333  -1.98826  -3.10421
C    -0.04602  -1.49903  -4.34211
H    -0.74079  -1.50504  -5.16940
C     1.24033  -1.02011  -4.51870
H     1.55432  -0.65313  -5.48510
C     2.13040  -1.01102  -3.45754
H     3.13608  -0.64092  -3.60415
C     3.20622   1.39013  -0.96044
C     2.69146   1.84939  -2.16916
H     1.75121   1.44972  -2.52526
C     3.36996   2.80530  -2.90112
C     4.56211   3.32625  -2.42284
C     5.06735   2.89129  -1.20903
H     5.99043   3.30435  -0.82857
C     4.39403   1.92806  -0.47788
H     4.78600   1.60015   0.47436
C     3.06963   0.10052   1.58720
C     4.21034  -0.62479   1.95240
C     4.64668  -0.58781   3.27078
C     3.99728   0.15156   4.24322
C     2.89751   0.90421   3.85955
H     2.38987   1.50797   4.59903
C     2.42964   0.89602   2.55653
C     5.02422  -1.42747   0.98179
H     5.99520  -1.65817   1.41580
H     5.18669  -0.87592   0.05857
H     4.53027  -2.36967   0.75325
C     4.47281   0.16907   5.66291
H     5.30141  -0.51984   5.80573
H     3.66367  -0.11298   6.33468
H     4.80133   1.17084   5.93952
C     1.23675   1.74491   2.22827
H     0.34089   1.09837   2.14823
H     1.38618   2.28718   1.28663
H     1.05918   2.46794   3.02262
H    -1.42530  -2.39991  -2.97643
H     2.96631   3.15148  -3.84163
H     5.09124   4.07715  -2.99111
H     5.52310  -1.16011   3.54219
O     0.28879  -1.22165   1.07082
