68

Pd    0.00000   0.00000   0.00000
O    -3.28209  -2.60526   3.11573
N    -2.94797   0.09862  -0.57821
N    -2.40030  -1.62729   0.57576
C     0.64482   0.60903   1.88964
C     1.57332   1.03404   0.91349
C     2.13709   0.10075   0.04799
C    -1.95028  -0.42768   0.14186
C    -4.02312  -0.76597  -0.62465
C    -3.68223  -1.85953   0.11029
C    -5.26587  -0.48040  -1.38799
C    -4.40822  -3.13153   0.35868
C    -2.81243   1.36943  -1.26404
C    -2.22406   2.40508  -0.32918
C    -0.95811   2.96704  -0.55523
C    -0.46077   3.88909   0.35898
C    -1.17351   4.26466   1.48741
C    -2.43963   3.73321   1.66948
C    -2.97699   2.81956   0.77480
C    -0.15520   2.67891  -1.79593
C    -0.58724   5.22617   2.47665
C    -4.37725   2.32664   0.99124
C    -1.60727  -2.49339   1.35993
C    -2.04570  -2.94088   2.61144
C    -1.23939  -3.78890   3.35991
C     0.00623  -4.16424   2.89202
C     0.45754  -3.69693   1.66883
C    -0.34420  -2.86840   0.90049
C    -3.55272  -1.29188   3.40630
C    -4.87052  -0.99372   3.74116
C    -5.20818   0.28826   4.12774
C    -4.24292   1.28074   4.17805
C    -2.93840   0.98557   3.82485
C    -2.58623  -0.29494   3.43915
H     0.16672   1.37021   2.49593
H     0.84936  -0.32454   2.41865
H     1.66879   2.09689   0.69916
H     2.34712  -0.91089   0.41157
H     2.79237   0.44266  -0.74728
H    -5.93297  -1.33574  -1.33392
H    -5.03390  -0.28683  -2.43483
H    -5.78915   0.38516  -0.98173
H    -5.18696  -3.26715  -0.38697
H    -4.86685  -3.14180   1.34722
H    -3.71639  -3.97087   0.30028
H    -3.79806   1.68480  -1.61321
H    -2.16312   1.21015  -2.13053
H     0.50765   4.33776   0.18109
H    -3.02815   4.04430   2.52117
H     0.75206   3.27982  -1.80356
H    -0.72940   2.92163  -2.68963
H     0.13100   1.61744  -1.85453
H     0.00369   5.98828   1.97308
H     0.07030   4.69648   3.16749
H    -1.36760   5.71164   3.05790
H    -4.83168   2.83901   1.83460
H    -4.39375   1.25862   1.20012
H    -4.98950   2.51605   0.10963
H    -1.60416  -4.13162   4.31588
H     0.62609  -4.81690   3.48760
H     1.42999  -3.98885   1.30216
H    -0.02159  -2.55940  -0.09464
H    -5.60817  -1.78076   3.71130
H    -6.23044   0.51091   4.39527
H    -4.50810   2.27804   4.49470
H    -2.18093   1.75376   3.84918
H    -1.56276  -0.51816   3.17789
O    -0.17687  -0.64546  -1.50818
