40

Ti    0.00000   0.00000   0.00000
Cl    1.62733  -1.47992  -0.25023
Si   -0.46640   1.35147   2.61622
N    -0.84642  -0.07565   1.70335
N    -1.20189  -1.97119   0.02139
C    -0.10357   2.34086  -0.08403
C     0.79187   2.10853  -1.15001
C     1.93994   1.50292  -0.62756
C     1.76369   1.36860   0.76715
C     0.52038   1.94517   1.12531
C     0.57831   0.99562   4.17694
C    -1.98221   2.42605   3.06499
C    -1.63550  -1.17322   2.20976
C    -1.26387  -2.42081   1.40842
C    -1.05382  -3.02343  -1.01434
C    -2.43706  -3.49439  -1.46761
C    -0.20973  -4.20780  -0.55502
H    -2.09603  -1.51154  -0.18291
H    -1.04553   2.87158  -0.16055
H     0.64188   2.40400  -2.18027
H     2.83472   1.24781  -1.18172
H     2.51431   1.01186   1.46332
H     1.08577   1.89026   4.52103
H     1.33045   0.23648   3.98121
H    -0.04813   0.64306   4.99017
H    -2.63889   2.56638   2.21143
H    -2.56098   1.96124   3.85669
H    -1.67569   3.40550   3.41520
H    -1.44997  -1.33567   3.27971
H    -2.71316  -0.95974   2.08483
H    -2.00130  -3.22101   1.56399
H    -0.27091  -2.76813   1.71320
H    -0.54916  -2.55030  -1.86921
H    -2.99338  -3.91985  -0.63356
H    -3.00080  -2.66203  -1.88564
H    -2.34245  -4.25711  -2.23590
H    -0.71611  -4.78146   0.21754
H     0.75450  -3.87083  -0.18621
H    -0.03555  -4.86397  -1.40387
O    -0.94813   0.08418  -1.34776
