40

H    -2.58319   4.03588   1.37997
Zn    0.00000   0.00000   0.00000
S     0.61010   2.21178  -1.05424
S     0.04160   0.65371   2.44039
S    -2.49174   0.00194  -0.40623
N    -1.95689   3.00882  -0.49119
N     1.48002   2.90916   2.41589
N    -0.53166   3.20443   1.59930
N    -3.47289  -0.16039   2.07569
C    -2.85754   0.59516   1.14168
N    -1.50532   2.71154  -2.61432
N    -2.66213   1.82786   1.63953
C     0.13323   4.40236   1.55629
H    -0.33764   5.27934   1.16492
C    -1.00237   2.64356  -1.36348
C     0.31374   2.29793   2.11815
C    -3.64856   0.60471   3.19584
H    -4.10419   0.21509   4.08200
C    -3.08485   3.29071  -1.21720
H    -3.98933   3.59361  -0.73331
C    -2.81236   3.10631  -2.52803
H    -3.42857   3.21622  -3.39572
C     1.37582   4.22535   2.05734
H     2.18668   4.91182   2.18366
B    -1.96675   3.07138   1.04954
C    -3.15012   1.83054   2.92046
H    -3.09398   2.70835   3.52896
C    -3.80306  -1.55061   1.94345
H    -3.80139  -1.81110   0.88537
H    -4.78845  -1.73821   2.36760
H    -3.06264  -2.16562   2.46020
C    -0.81282   2.35818  -3.82034
H    -0.91194   3.15685  -4.55544
H    -1.22253   1.43363  -4.23209
H     0.24044   2.20793  -3.58425
C     2.64887   2.27673   2.95671
H     2.95247   2.77337   3.87889
H     3.46645   2.32077   2.23515
H     2.41164   1.23417   3.16806
O     0.85726  -1.33642  -0.44898
