40

C    -2.24393  -1.40625   3.63233
H    -2.40499  -2.44950   3.35829
H    -2.61322  -1.22287   4.63813
H    -1.17035  -1.20666   3.59154
C    -3.42968  -2.15221  -2.71296
H    -3.74548  -3.08243  -3.13758
C    -2.75528  -0.56667   1.37467
C    -4.15511   1.04210   1.84627
H    -4.81020   1.86487   1.65281
C    -3.80114   0.46157   3.01551
H    -4.08783   0.68325   4.02227
C    -1.71208   2.61264  -0.23708
C    -3.03689   2.96912  -1.93650
H    -3.85125   2.78618  -2.60473
C    -2.10406   3.94867  -1.94147
H    -1.95601   4.77102  -2.60980
C    -0.11844   4.47134  -0.49898
H    -0.26827   4.94316   0.47363
H     0.07740   5.22929  -1.25327
H     0.73832   3.79803  -0.42056
C    -2.09125  -0.45869  -2.28428
C    -4.06436  -1.30080  -1.87502
H    -5.03865  -1.35857  -1.43730
C    -1.15209  -2.18503  -3.76680
H    -0.84046  -1.47648  -4.53535
H    -1.51045  -3.10172  -4.22788
H    -0.28665  -2.40301  -3.13634
B    -3.64713   0.87595  -0.63549
N    -3.50849   0.39925   0.82348
N    -2.93335  -0.54886   2.71164
N    -2.79689   2.13946  -0.87276
N    -1.28416   3.72310  -0.87219
N    -3.23410  -0.24298  -1.61193
N    -2.20070  -1.61444  -2.97111
S    -1.75362  -1.72052   0.62867
S    -0.94206   2.04512   1.16854
S    -0.69264   0.50262  -2.38862
Zn    0.00000   0.00000   0.00000
H    -4.78895   1.14753  -0.83582
O     1.58213  -0.37732   0.27749
