40

C    -2.67917  -0.75660  -1.81653
C    -4.25016   0.69991  -2.24410
H    -4.68012   1.59563  -2.64007
C    -4.80746  -0.28836  -1.50932
H    -5.80565  -0.41705  -1.14604
C    -3.97010  -2.39557  -0.47269
H    -4.69728  -3.06231  -0.93827
H    -4.30171  -2.14391   0.53570
H    -3.00366  -2.89667  -0.42048
C    -1.60188   2.72776  -0.97861
C    -1.15480   3.74624  -2.85654
H    -1.06997   3.86478  -3.91615
C    -0.84317   4.59799  -1.85276
H    -0.43916   5.58862  -1.87455
C    -0.92309   4.44647   0.65001
H    -0.56844   5.47302   0.60291
H    -0.18241   3.82508   1.16044
H    -1.85421   4.39770   1.21680
C     0.50933   0.61156  -3.21279
C    -0.78222  -0.17675  -4.78602
H    -1.68689  -0.31572  -5.33944
C     0.44173  -0.72689  -4.95690
H     0.79942  -1.42906  -5.68083
C     2.61724  -0.55877  -3.72065
H     2.99396  -1.16974  -4.53719
H     2.69611  -1.11269  -2.78131
H     3.21140   0.35145  -3.62837
N    -2.92650   0.40624  -2.44183
N    -3.82185  -1.20067  -1.25297
N    -1.63292   2.58293  -2.31330
N    -1.13458   3.95738  -0.68217
N    -0.74003   0.66142  -3.70300
N     1.24615  -0.22117  -3.97561
S    -1.22615  -1.64369  -1.73926
S    -2.10223   1.65393   0.24575
S     1.20055   1.45739  -1.90560
Hg    0.00000   0.00000   0.00000
B    -2.00895   1.38345  -3.20653
H    -2.60377   1.79144  -4.15371
O     0.83414  -0.57514   1.30228
