25

Pd    0.00000   0.00000   0.00000
Cl    1.75421  -1.21004  -0.62200
N    -2.90515   0.57921   2.81859
C    -2.06559   0.18733   1.86539
N    -1.43596   1.05186   1.00633
C    -1.68885   2.35061   1.12989
H    -1.17397   3.00672   0.43645
C    -2.55755   2.81795   2.10038
H    -2.76162   3.86926   2.20815
C    -3.14510   1.86467   2.93394
H    -3.82821   2.14453   3.72436
N    -1.87822  -1.12654   1.66061
N    -1.00888  -1.41740   0.74792
C    -0.95303  -2.74465   0.35194
C    -1.19093  -3.77932   1.26261
H    -1.43468  -3.52413   2.28220
C    -1.06656  -5.08964   0.85083
H    -1.22431  -5.88950   1.55809
C    -0.73288  -5.38136  -0.46473
H    -0.63145  -6.40909  -0.77839
C    -0.53768  -4.35714  -1.37971
H    -0.29886  -4.58716  -2.40610
C    -0.64338  -3.03920  -0.98207
H    -0.53153  -2.22588  -1.69713
O     0.64955   1.34419  -0.70267
