51

Pd    0.00000   0.00000   0.00000
As    0.58326  -0.57070   2.17846
Cl   -0.25013   2.14781   0.68046
P     0.00929  -2.19965  -0.43380
C     0.18795   0.19644   3.91999
C     1.19062   0.68255   4.75171
H     2.22617   0.61636   4.43067
C     0.86189   1.25221   5.97017
H     1.63987   1.62879   6.61823
C    -0.46531   1.34847   6.35488
H    -0.71892   1.79740   7.30367
C    -1.46964   0.88420   5.52021
H    -2.50392   0.97443   5.81849
C    -1.14524   0.31511   4.30159
H    -1.92031  -0.03779   3.62436
C     0.02869  -2.48717   2.30931
H    -1.03843  -2.73447   2.29065
C     0.75207  -2.98368   3.53314
C     0.08205  -3.97352   4.42523
H    -0.15692  -4.88069   3.86876
H    -0.85313  -3.55826   4.80180
H     0.71001  -4.24000   5.27007
C     1.98604  -2.47553   3.60933
C     3.06291  -2.76558   4.60004
H     2.69873  -3.38539   5.41387
H     3.44886  -1.83576   5.01664
H     3.89208  -3.28176   4.11426
C     2.28482  -1.59258   2.42386
H     3.22717  -1.04262   2.49395
C     2.22519  -2.48790   1.17000
H     2.94439  -3.30702   1.25207
H     2.48498  -1.89186   0.27829
C     0.77362  -3.00805   1.05843
H     0.71674  -4.10091   0.98935
C     0.63227  -3.03315  -1.90092
H     0.14097  -2.67940  -2.80184
C     1.61999  -3.91593  -1.94493
H     2.13452  -4.25440  -1.06018
H     1.95692  -4.33613  -2.87908
C    -1.72935  -2.72736  -0.36841
C    -2.11132  -4.03243  -0.66256
H    -1.36359  -4.75251  -0.96673
C    -3.44305  -4.39514  -0.57451
H    -3.74184  -5.40671  -0.80697
C    -4.39403  -3.46104  -0.19475
H    -5.43335  -3.74724  -0.13301
C    -4.01785  -2.15905   0.09679
H    -4.76290  -1.43197   0.38299
C    -2.68770  -1.78916   0.01121
H    -2.38360  -0.75225   0.21621
O    -0.41378   0.26556  -1.57504
