59

Hg    0.00000   0.00000   0.00000
B     2.57733  -0.15996   1.94326
C     1.07491  -1.89721  -0.32079
C     0.44990  -2.73702  -1.21764
H    -0.47921  -2.44286  -1.69690
C     0.98100  -3.99144  -1.55335
H     0.45818  -4.61682  -2.26168
C     2.15238  -4.39698  -0.98810
H     2.58830  -5.35297  -1.24163
C     4.04981  -4.01504   0.48576
H     4.42814  -4.98310   0.18993
C     4.74403  -3.22545   1.35448
H     5.69023  -3.54872   1.76302
C     4.22408  -1.97998   1.71661
H     4.79345  -1.37087   2.40437
C     3.00687  -1.50654   1.25416
C     2.28917  -2.30371   0.30492
C     2.82791  -3.57453  -0.06400
C     1.19533   0.06953   2.66084
C     0.60310   1.36070   2.72089
C    -0.59111   1.55405   3.39854
H    -1.02882   2.54215   3.42253
C    -1.24320   0.51518   4.04791
C    -0.65087  -0.73739   4.02560
H    -1.13005  -1.55516   4.54667
C     0.53911  -0.97451   3.35381
C     1.23871   2.57498   2.09794
H     0.49180   3.35329   1.95768
H     1.69531   2.35989   1.13308
H     2.01916   2.96533   2.75090
C    -2.54694   0.75461   4.74069
H    -2.83827  -0.10547   5.33848
H    -3.32569   0.94219   4.00153
H    -2.48451   1.63004   5.38497
C     1.11123  -2.36174   3.43236
H     0.64612  -2.91268   4.24714
H     2.18566  -2.34394   3.59355
H     0.92155  -2.90525   2.50754
C     3.72004   0.91432   2.05384
C     4.18821   1.34560   3.30387
C     5.21884   2.27006   3.38495
H     5.56859   2.58610   4.35847
C     5.80850   2.79922   2.24795
C     5.35225   2.36495   1.01093
H     5.80665   2.76197   0.11351
C     4.33493   1.43173   0.90333
C     3.59914   0.79646   4.57235
H     2.58099   1.15772   4.70992
H     4.19041   1.10140   5.43304
H     3.55934  -0.29085   4.54567
C     6.90471   3.81632   2.33742
H     7.24063   3.93947   3.36400
H     6.55236   4.78092   1.97194
H     7.75337   3.51909   1.72334
C     3.89700   0.98706  -0.46355
H     2.80624   0.98947  -0.55811
H     4.23906  -0.02961  -0.65503
H     4.30792   1.63818  -1.23182
O    -1.19393   1.12983  -0.14321
