66

Au    0.00000   0.00000   0.00000
Br   -1.07452  -2.12383   0.38654
Br   -0.48115   0.79675   2.26882
Br    4.75782   0.94128  -0.14522
Br    4.60484   6.98119   6.70828
N     0.45743   2.82869  -0.96232
N     2.20088   2.07546   0.05321
N     3.44018   3.10487   2.22291
C     0.94685   1.76920  -0.32106
C     2.50420   3.34451  -0.36370
H     3.45717   3.79195  -0.17910
C     1.40736   3.81360  -1.00247
H     1.23781   4.75736  -1.47525
C    -0.87459   2.92777  -1.53839
H    -1.38029   1.97909  -1.31971
C    -0.77333   3.09661  -3.05041
H    -0.28564   4.03371  -3.30608
H    -1.77008   3.09675  -3.48134
H    -0.21110   2.27419  -3.48732
C    -1.64127   4.06318  -0.86781
H    -1.65212   3.93188   0.21245
H    -2.66738   4.06617  -1.22365
H    -1.19390   5.02624  -1.09990
C     3.05094   1.24281   0.83371
H     2.60815   0.24951   0.93703
C     3.41685   1.84162   2.17490
C     3.81888   0.89354   3.22617
C     3.08307  -0.25859   3.49579
H     2.16950  -0.46717   2.96047
C     3.48236  -1.11797   4.50177
H     2.89676  -1.99977   4.71091
C     4.62417  -0.84743   5.23750
H     4.93576  -1.52389   6.01860
C     5.36152   0.29571   4.97424
H     6.25115   0.51201   5.54588
C     4.95875   1.16727   3.98105
H     5.53590   2.05478   3.77080
C     3.71872   3.90832   3.31437
C     2.87728   3.95465   4.43657
C     1.65680   3.07794   4.56581
H     1.59970   2.40619   3.70649
C     0.38324   3.92645   4.55660
H     0.32203   4.55317   5.44219
H    -0.48367   3.27182   4.52848
H     0.36142   4.56682   3.67709
C     1.72281   2.21372   5.82583
H     2.65256   1.64931   5.85740
H     0.89223   1.51309   5.82453
H     1.65876   2.82369   6.72284
C     3.15610   4.88121   5.43034
H     2.52285   4.93911   6.30105
C     4.24001   5.72726   5.31466
C     5.06497   5.68986   4.20657
H     5.90160   6.36635   4.13661
C     4.80847   4.78585   3.19150
C     5.70087   4.73092   1.97156
H     5.39324   3.87324   1.36368
C     7.16941   4.53052   2.34837
H     7.55657   5.38859   2.89093
H     7.76626   4.39837   1.44901
H     7.29190   3.64696   2.97152
C     5.52428   6.00192   1.13755
H     5.85611   6.87438   1.69457
H     4.47757   6.14329   0.87485
H     6.10956   5.93535   0.22311
O     0.36844  -0.37808  -1.56327
