69

Au    0.00000   0.00000   0.00000
Br    0.87319  -2.21002  -0.43015
Br    0.64893   0.80301  -2.22776
Br   -4.62052   0.92157   0.18427
Br   -4.62295   6.59937  -6.94498
N    -0.36583   2.94099   0.94576
N    -2.08223   2.08670  -0.04722
N    -3.32239   2.99827  -2.27032
C    -0.81632   1.83912   0.33844
C    -1.36694   3.87978   0.95618
H    -1.25568   4.84338   1.40275
C    -2.44037   3.35150   0.32897
H    -3.40903   3.75661   0.12976
C     0.92799   3.16716   1.61421
C     1.36310   4.61389   1.35651
H     1.30381   4.84881   0.29590
H     2.39430   4.73823   1.67409
H     0.76307   5.32671   1.91481
C     0.71710   2.91991   3.11021
H    -0.04469   3.58601   3.50893
H     1.64577   3.09606   3.64498
H     0.40353   1.89456   3.29299
C     2.00825   2.23806   1.06731
H     1.82149   1.19867   1.33265
H     2.96556   2.50698   1.50596
H     2.09571   2.33158  -0.01303
C    -2.91269   1.20603  -0.79628
H    -2.45903   0.21396  -0.85553
C    -3.28212   1.73911  -2.16350
C    -3.67032   0.73767  -3.16992
C    -2.91438  -0.41187  -3.39052
H    -1.99595  -0.58100  -2.84920
C    -3.30138  -1.32407  -4.35379
H    -2.70044  -2.20391  -4.52435
C    -4.45133  -1.10873  -5.09507
H    -4.75410  -1.82635  -5.84218
C    -5.20884   0.03148  -4.88066
H    -6.10522   0.20450  -5.45657
C    -4.81831   0.95517  -3.93074
H    -5.41131   1.84026  -3.75756
C    -3.62527   3.74083  -3.39868
C    -2.79310   3.75077  -4.52818
C    -3.10479   4.61433  -5.56802
H    -2.47936   4.64292  -6.44582
C    -4.21152   5.43446  -5.48861
C    -5.02610   5.43535  -4.37211
H    -5.88015   6.09216  -4.33084
C    -4.73726   4.59467  -3.31237
C    -1.54720   2.90557  -4.61767
H    -1.47134   2.27770  -3.72722
C    -0.30104   3.79350  -4.64815
H    -0.26002   4.38131  -5.56118
H     0.58664   3.16921  -4.59101
H    -0.30018   4.47313  -3.79838
C    -1.58375   1.98109  -5.83517
H    -1.54105   2.54933  -6.76044
H    -2.49315   1.38356  -5.83808
H    -0.72890   1.31090  -5.80257
C    -5.61418   4.58557  -2.08011
H    -5.28894   3.76043  -1.43754
C    -5.43836   5.89604  -1.30907
H    -4.38955   6.05734  -1.06683
H    -6.01189   5.86867  -0.38522
H    -5.78396   6.73831  -1.90308
C    -7.08563   4.35252  -2.42457
H    -7.66629   4.25145  -1.51069
H    -7.20677   3.44187  -3.00759
H    -7.49253   5.18224  -2.99604
O    -0.54187  -0.41362   1.50260
