70

Au    0.00000   0.00000   0.00000
Br    0.56683   1.58180   1.80324
Br   -0.62764  -1.69654  -1.66469
Br    2.47602  -1.85902   4.02673
Br    3.42095  -9.76394  -0.09089
N    -1.71831  -1.83234   1.69654
N     0.36054  -2.04078   2.20901
N     2.03842  -4.21456   1.84946
C    -0.50073  -1.35681   1.43489
C    -1.63276  -2.82135   2.63727
H    -2.49974  -3.33110   3.00193
C    -0.32434  -2.96265   2.95381
H     0.17248  -3.62523   3.63049
C    -2.96783  -1.34569   1.15849
H    -3.50738  -2.18455   0.71033
H    -2.74725  -0.62126   0.36852
C    -3.79013  -0.69715   2.24705
C    -3.24963   0.34147   2.99555
H    -2.24683   0.69156   2.79702
C    -3.99244   0.93654   3.99875
H    -3.56310   1.74287   4.57297
C    -5.28093   0.50039   4.25891
H    -5.86154   0.96690   5.03993
C    -5.82361  -0.53308   3.51491
H    -6.82802  -0.87516   3.71306
C    -5.07919  -1.13435   2.51448
H    -5.50529  -1.93997   1.93384
C     1.78509  -1.90799   2.18070
H     2.06542  -0.94419   1.75497
C     2.42695  -3.07679   1.45421
C     3.42878  -2.76984   0.42334
C     3.27328  -1.68807  -0.44246
H     2.39899  -1.05214  -0.37166
C     4.20086  -1.43530  -1.43316
H     4.05187  -0.60191  -2.10228
C     5.31261  -2.25178  -1.56219
H     6.04075  -2.05252  -2.33315
C     5.48374  -3.32590  -0.70363
H     6.34818  -3.96504  -0.80014
C     4.54626  -3.59169   0.27582
H     4.68301  -4.42969   0.94189
C     2.37712  -5.45462   1.34478
C     2.97237  -6.35862   2.24025
C     3.29933  -5.92403   3.65004
H     2.83475  -4.94603   3.81410
C     2.72535  -6.90137   4.67661
H     1.66514  -7.06489   4.49585
H     2.84800  -6.49657   5.67838
H     3.23391  -7.86074   4.63484
C     4.80986  -5.76951   3.83942
H     5.32007  -6.71146   3.65175
H     5.02510  -5.45514   4.85764
H     5.21152  -5.01855   3.16207
C     3.28820  -7.63160   1.79994
H     3.77411  -8.33203   2.45994
C     2.97369  -8.00653   0.50740
C     2.32934  -7.14184  -0.35458
H     2.06764  -7.47252  -1.34687
C     2.02386  -5.84961   0.04441
C     1.25352  -4.94950  -0.89011
H     1.13890  -3.96406  -0.42899
C    -0.15269  -5.51089  -1.11636
H    -0.11079  -6.46592  -1.63260
H    -0.72833  -4.81306  -1.71915
H    -0.66165  -5.65469  -0.16472
C     1.97812  -4.75505  -2.22198
H     2.02388  -5.68483  -2.78190
H     2.99318  -4.39760  -2.06047
H     1.44165  -4.02197  -2.81884
O     0.46945   1.06200  -1.17230
