52

Re    0.00000   0.00000   0.00000
Br    1.16705   1.41412   1.60781
C    -2.37571  -2.46753   3.53424
H    -3.17548  -1.78659   3.83007
H    -1.42207  -2.00940   3.78752
H    -2.49369  -3.39796   4.08340
O    -3.16549  -3.80397   1.69693
C    -2.42647  -2.73575   2.06763
C    -1.78427  -1.97327   1.12599
O    -1.06756  -0.91694   1.38271
C    -1.87552  -2.31961  -0.28966
O    -1.27373  -1.60204  -1.11311
C    -2.67945  -3.45450  -0.59475
H    -2.78967  -3.76728  -1.61858
C    -3.27084  -4.13087   0.42036
H    -3.88398  -5.00759   0.26964
O     0.60623   0.68307  -1.37308
P    -1.97548   1.47480   0.10757
C    -2.29383   2.35731   1.66362
C    -2.05956   1.71431   2.87734
H    -1.66209   0.70931   2.89015
C    -2.31023   2.36904   4.06830
H    -2.11828   1.86913   5.00557
C    -2.79172   3.66782   4.05719
H    -2.98160   4.18089   4.98779
C    -3.01759   4.31273   2.85253
H    -3.38347   5.32857   2.84234
C    -2.76813   3.66511   1.65617
H    -2.93510   4.17640   0.71937
C    -3.45424   0.46811  -0.17827
C    -4.27675   0.05355   0.86408
H    -4.11294   0.43432   1.86320
C    -5.30329  -0.84181   0.61748
H    -5.94088  -1.16273   1.42835
C    -5.51008  -1.32881  -0.66258
H    -6.30782  -2.03215  -0.84910
C    -4.69355  -0.91522  -1.70483
H    -4.85430  -1.29573  -2.70228
C    -3.66414  -0.02556  -1.46603
H    -3.00249   0.28065  -2.26547
C    -2.00121   2.75754  -1.17169
C    -0.79327   3.34981  -1.52966
H     0.12767   3.01131  -1.07160
C    -0.77467   4.35247  -2.48233
H     0.16271   4.80745  -2.76280
C    -1.95571   4.76563  -3.07798
H    -1.93978   5.54397  -3.82608
C    -3.15953   4.17960  -2.71916
H    -4.07968   4.50268  -3.18345
C    -3.18825   3.17817  -1.76586
H    -4.12784   2.72235  -1.48320
O     1.12111  -1.19802   0.17425
