53

Re    0.00000   0.00000   0.00000
Cl    0.56341  -1.54513   1.56391
P     0.83038  -1.58867  -1.65270
O    -1.70271  -1.14222  -0.79223
O    -1.05881   1.33775  -1.53379
O     1.33805   0.97498   0.01746
O    -4.46104  -0.33821  -2.93970
C    -3.67329  -1.01863  -2.07870
H    -4.05225  -1.99946  -1.84335
C    -2.51271  -0.50560  -1.57183
C    -2.12406   0.85407  -1.97224
C    -2.99946   1.51407  -2.87405
H    -2.76057   2.51294  -3.19756
C    -4.12717   0.88820  -3.31482
C    -5.08446   1.49710  -4.31428
H    -5.13671   2.57731  -4.16377
H    -4.67924   1.31218  -5.32518
O    -6.38997   1.01318  -4.20900
H    -6.36743   0.05010  -4.14800
C     2.56547  -1.29384  -2.09973
C     3.44375  -0.90015  -1.09431
H     3.06539  -0.74493  -0.09167
C     4.77873  -0.69232  -1.38946
H     5.45878  -0.38301  -0.61071
C     5.24024  -0.87239  -2.68426
H     6.28115  -0.70239  -2.91546
C     4.36717  -1.26551  -3.68560
H     4.72673  -1.40468  -4.69459
C     3.03088  -1.48040  -3.39793
H     2.34968  -1.79115  -4.17836
C     0.76798  -3.35078  -1.21732
C     1.84572  -4.18343  -1.50462
H     2.72967  -3.78338  -1.97914
C     1.78830  -5.52566  -1.17394
H     2.62848  -6.16648  -1.39677
C     0.66480  -6.04439  -0.55265
H     0.62771  -7.09105  -0.28960
C    -0.40725  -5.21672  -0.26011
H    -1.28022  -5.61644   0.23378
C    -0.35932  -3.87458  -0.58746
H    -1.18690  -3.22534  -0.34461
C    -0.07982  -1.41577  -3.21003
C    -0.95047  -2.39061  -3.68192
H    -1.03687  -3.33237  -3.15871
C    -1.70721  -2.14503  -4.81512
H    -2.38435  -2.90257  -5.18157
C    -1.60110  -0.93172  -5.47496
H    -2.19693  -0.74338  -6.35600
C    -0.72885   0.04078  -5.00865
H    -0.64629   0.98602  -5.52391
C     0.02844  -0.19650  -3.87738
H     0.69712   0.55978  -3.48730
O    -1.15829   0.57446   1.02512
