48

Pd    0.00000   0.00000   0.00000
C    -2.27968  -0.75035  -2.28340
C    -3.48961  -0.80399  -2.96979
H    -4.34657  -0.26229  -2.59269
C    -3.59162  -1.56795  -4.11788
H    -4.52653  -1.60543  -4.65728
C    -2.49938  -2.29059  -4.57300
H    -2.58514  -2.88459  -5.47055
C    -1.30358  -2.26528  -3.87333
H    -0.46109  -2.84413  -4.22077
C    -1.19248  -1.49883  -2.72710
H    -0.25707  -1.47721  -2.15621
C    -3.52472  -0.26437   0.21409
C    -4.35810   0.67015   0.81602
H    -4.16544   1.72723   0.69431
C    -5.43484   0.24066   1.57265
H    -6.08342   0.96662   2.04047
C    -5.67626  -1.11285   1.73589
H    -6.51378  -1.44240   2.33250
C    -4.84013  -2.04606   1.14177
H    -5.02354  -3.10130   1.27759
C    -3.76543  -1.62556   0.38363
H    -3.09516  -2.34324  -0.07121
C    -2.30750   1.98178  -1.09318
C    -1.72073   2.82148  -0.14461
H    -1.17787   2.37432   0.69704
C    -1.81027   4.19245  -0.28420
H    -1.35504   4.84350   0.44711
C    -2.47378   4.72997  -1.37779
H    -2.53581   5.80151  -1.49482
C    -3.04049   3.89801  -2.32822
H    -3.54044   4.32119  -3.18686
C    -2.96144   2.52158  -2.19092
H    -3.38556   1.87418  -2.94421
C     4.13457   0.24739   0.44211
H     5.03365   0.63438   0.00759
C     3.95916  -0.50824   1.59831
C     2.57355  -0.74028   1.69399
H     2.02900  -1.28416   2.44383
Cl   -0.78300  -1.21183   1.73378
N     1.98073  -0.16304   0.66920
N     2.92390   0.42546  -0.07501
H     2.57030   0.92215  -0.92334
N     4.97231  -0.94747   2.48615
O     4.63037  -1.60220   3.44623
O     6.11418  -0.63414   2.21801
P    -2.07077   0.21141  -0.76010
O     0.54513   0.89835  -1.27213
