51

Ni    0.00000   0.00000   0.00000
Br    0.41153  -2.08990   0.74829
N     0.74020  -0.60387  -2.24325
H     0.66332  -1.60649  -2.04331
N     2.78076   0.39951  -0.19441
N     1.91053   1.77129   1.22679
C    -0.15334  -0.35950  -3.39847
C     0.28014  -1.15174  -4.63957
H    -0.49652  -1.08930  -5.39707
H     0.43195  -2.20251  -4.39549
H     1.19718  -0.75462  -5.06921
C    -1.53839  -0.84337  -2.96050
H    -2.29282  -0.57924  -3.69594
H    -1.81431  -0.37626  -2.01505
H    -1.54606  -1.92464  -2.82862
C    -0.19981   1.13482  -3.71703
H    -1.00058   1.33583  -4.42291
H     0.73280   1.47697  -4.15989
H    -0.39099   1.70464  -2.81202
C     2.15758  -0.33431  -2.47052
H     2.27894   0.71600  -2.74769
H     2.57376  -0.95995  -3.27232
C     2.96956  -0.61709  -1.20181
H     2.67802  -1.58963  -0.79087
H     4.03315  -0.64421  -1.44521
C     1.61150   0.77406   0.36891
C     3.80258   1.14965   0.31868
H     4.82005   1.01138   0.01654
C     3.25891   2.00566   1.21128
H     3.71082   2.74079   1.84419
C     0.89318   3.92124   1.68681
C     0.08391   4.71156   2.48675
H    -0.03952   5.75471   2.23593
C    -0.58581   4.19082   3.58446
C    -0.44970   2.84017   3.86825
H    -0.98723   2.41543   4.70342
C     0.34954   2.01252   3.09516
C     1.03034   2.57114   2.01410
C     1.55049   4.49442   0.46784
H     2.62554   4.60825   0.60547
H     1.13001   5.47047   0.24385
H     1.38207   3.84420  -0.38927
C    -1.47719   5.05700   4.41857
H    -1.47014   4.73544   5.45798
H    -2.50148   4.98686   4.05086
H    -1.16955   6.09885   4.36528
C     0.42010   0.54533   3.36731
H     0.00110   0.30632   4.34049
H     1.44034   0.16669   3.31552
H    -0.17655   0.02116   2.60881
O    -0.95718   1.34121  -0.08629
