64

Ru    0.00000   0.00000   0.00000
P    -0.56537  -0.45677   2.23180
P     2.32586  -0.33594   0.13863
Cl    0.77006   0.02815  -2.28406
Cl   -0.47375  -2.21966  -0.25145
O     0.26539   2.80335   0.08958
N     0.18914   1.65161   0.08897
C     0.27897  -1.90375   3.02073
H     0.43751  -1.66044   4.07591
H    -0.48224  -2.69118   2.97254
C     1.54928  -2.45986   2.37503
H     1.69314  -3.46889   2.77062
H     1.38332  -2.56027   1.29696
C     2.84026  -1.68148   2.60344
H     3.66166  -2.29261   2.22064
H     3.00986  -1.53921   3.67509
C     2.87879  -0.32289   1.91199
H     3.89155   0.08911   1.96283
H     2.20818   0.37773   2.42152
C    -0.21679   1.03926   3.20678
C     0.69350   1.14684   4.25075
H     1.24382   0.28349   4.59684
C     0.89820   2.37291   4.86380
H     1.61029   2.45194   5.67227
C     0.19702   3.49038   4.44552
H     0.36586   4.44297   4.92459
C    -0.72582   3.38550   3.41467
H    -1.28005   4.25308   3.09097
C    -0.93041   2.16794   2.79693
H    -1.65563   2.06684   1.99575
C    -2.29544  -0.79871   2.67197
C    -3.01344  -1.72536   1.92027
H    -2.55289  -2.20064   1.06670
C    -4.32272  -2.01916   2.25037
H    -4.87729  -2.72791   1.65414
C    -4.92350  -1.40035   3.33418
H    -5.94942  -1.62459   3.58634
C    -4.20751  -0.49028   4.09305
H    -4.67075  -0.00761   4.94118
C    -2.89776  -0.18645   3.76749
H    -2.35113   0.52948   4.36437
C     3.16398   1.15515  -0.47010
C     3.18319   2.31331   0.30430
H     2.72278   2.32634   1.28436
C     3.78126   3.46089  -0.18325
H     3.78666   4.35738   0.41881
C     4.35992   3.46314  -1.44176
H     4.82060   4.36293  -1.82110
C     4.33784   2.31479  -2.21596
H     4.77935   2.31698  -3.20119
C     3.74058   1.16357  -1.73663
H     3.70052   0.27269  -2.34613
C     3.27065  -1.68270  -0.61908
C     2.67671  -2.64661  -1.42287
H     1.61496  -2.60999  -1.61596
C     3.45363  -3.64511  -1.98524
H     2.98971  -4.39161  -2.61186
C     4.81696  -3.68389  -1.74981
H     5.42101  -4.46267  -2.19126
C     5.41238  -2.71716  -0.95324
H     6.47783  -2.74139  -0.77669
C     4.64573  -1.71653  -0.38884
H     5.11223  -0.95112   0.21653
O    -1.59777   0.30488  -0.27691
