68

Pd    0.00000   0.00000   0.00000
I     2.49368   0.01175  -0.71989
P    -0.29350   1.74598  -1.38498
C     0.24705   3.17435  -0.39791
C     0.22012   4.47507  -0.89391
C     0.63761   5.52569  -0.09832
C     1.07801   5.29038   1.19468
C     1.10078   4.00022   1.69776
C     0.68697   2.94531   0.90545
C     0.62014   1.81733  -2.95303
C     0.29077   0.85249  -3.90252
C     0.97923   0.78753  -5.09751
C     2.00795   1.68137  -5.34823
C     2.35452   2.62499  -4.39635
C     1.67158   2.69183  -3.19512
C    -1.96515   2.24498  -2.01673
C    -3.17088   1.93650  -1.12073
C    -4.43426   2.46559  -1.84622
C    -5.69447   2.27369  -1.06245
C    -6.62491   1.38564  -1.36104
C    -2.99970   2.63233   0.22680
C    -3.31753   0.41848  -0.94543
P    -2.18659  -0.34943   0.29623
C    -2.31373  -2.09475  -0.20156
C    -1.46032  -2.45680  -1.24859
C    -1.40773  -3.76549  -1.68383
C    -2.19468  -4.72674  -1.06640
C    -3.01856  -4.37744  -0.01118
C    -3.07951  -3.06513   0.42844
C    -3.05498  -0.10932   1.86904
C    -4.39410  -0.45431   2.02655
C    -5.02087  -0.23350   3.23900
C    -4.32504   0.33971   4.29156
C    -2.99986   0.70795   4.12977
C    -2.36805   0.48779   2.92059
H    -0.11571   4.66396  -1.90525
H     0.62350   6.53222  -0.49030
H     1.40677   6.11471   1.80935
H     1.44674   3.81429   2.70341
H     0.72175   1.92222   1.31239
H    -0.49454   0.13338  -3.68860
H     0.72446   0.03275  -5.82689
H     2.55238   1.62779  -6.27883
H     3.17300   3.30441  -4.58058
H     1.97470   3.40296  -2.44034
H    -2.09386   1.74779  -2.98518
H    -1.91232   3.32239  -2.20855
H    -4.52508   1.95387  -2.80771
H    -4.29819   3.53300  -2.04016
H    -5.81886   2.91809  -0.20286
H    -7.52008   1.27707  -0.77275
H    -6.53770   0.73521  -2.21706
H    -2.95464   3.71281   0.09829
H    -3.81981   2.39186   0.89972
H    -2.06634   2.30917   0.69808
H    -3.13321  -0.08524  -1.90349
H    -4.34218   0.18208  -0.63923
H    -0.80472  -1.70293  -1.71382
H    -0.73973  -4.04226  -2.48616
H    -2.14460  -5.75355  -1.39579
H    -3.60763  -5.13239   0.48790
H    -3.69185  -2.80934   1.28053
H    -4.95016  -0.88921   1.20683
H    -6.05780  -0.51027   3.36250
H    -4.81971   0.50348   5.23714
H    -2.45780   1.16255   4.94490
H    -1.32967   0.77714   2.79041
O     0.23317  -1.06456   1.23889
