69

Pd    0.00000   0.00000   0.00000
P    -0.07021   1.49325  -1.64993
N     1.47577   1.40823   0.90442
C     1.19364   1.59877  -2.95213
C     1.55744   0.38474  -3.53278
H     1.07756  -0.52371  -3.18521
C     2.51785   0.34784  -4.52504
H     2.79469  -0.59362  -4.97602
C     3.13219   1.52242  -4.93322
H     3.88684   1.49650  -5.70523
C     2.78488   2.72828  -4.34702
H     3.26937   3.64098  -4.66230
C     1.81823   2.77183  -3.35651
H     1.55064   3.71454  -2.89975
C    -1.64220   1.46161  -2.56467
C    -1.77277   1.57002  -3.94275
H    -0.89513   1.69570  -4.56237
C    -3.03220   1.51176  -4.51680
H    -3.13560   1.59189  -5.58919
C    -4.15486   1.35044  -3.72264
H    -5.13320   1.30496  -4.17769
C    -4.02590   1.23598  -2.34573
H    -4.90267   1.09957  -1.73027
C    -2.77291   1.28389  -1.76840
H    -2.64206   1.16595  -0.69212
C    -0.12517   3.19033  -0.95862
C     0.51780   3.54764   0.24036
C     0.39511   4.86305   0.69994
H     0.88658   5.14058   1.62198
C    -0.34228   5.80533   0.01277
H    -0.42917   6.81030   0.39731
C    -0.96049   5.45412  -1.17615
H    -1.53035   6.18338  -1.73220
C    -0.84571   4.16030  -1.65097
H    -1.32913   3.89309  -2.58036
C     1.36880   2.66568   1.02707
H     1.98397   3.19049   1.77209
C     2.46750   0.70385   1.66516
H     1.97312  -0.13755   2.16368
H     2.92721   1.36156   2.42071
C     3.57572   0.18737   0.72273
H     3.99257   1.08020   0.23183
C     4.72451  -0.44992   1.50175
H     5.05456   0.19745   2.31664
C     4.51917  -1.94916   1.83631
C     5.00234  -2.20971   0.39200
H     5.56815  -3.12361   0.20466
C     3.86225  -2.05240  -0.60610
H     3.20860  -2.92366  -0.54746
H     4.29072  -2.03697  -1.61191
C     3.03991  -0.76211  -0.37675
H     2.99660  -0.20470  -1.31775
H     1.99782  -1.05047  -0.12622
C     5.76816  -0.88240   0.45768
H     6.77528  -0.97479   0.85450
H     5.80200  -0.29946  -0.46138
C     3.16462  -2.49317   2.26591
H     2.34993  -2.24029   1.59955
H     2.91263  -2.12606   3.25884
H     3.22148  -3.57956   2.31889
C     5.54075  -2.41822   2.87402
H     5.26616  -2.04374   3.85844
H     6.54719  -2.07706   2.65100
H     5.55349  -3.50560   2.91622
C    -1.17829  -1.44471  -0.85734
H    -1.37329  -1.26336  -1.92118
H    -2.13481  -1.53536  -0.33235
H    -0.62832  -2.38835  -0.74296
O    -0.18500  -0.82550   1.41662
