51

Y     0.00000   0.00000   0.00000
Cl   -1.42625  -1.36912   1.60228
S     0.67184   1.95553   1.97456
N    -1.35673   3.69929   1.53633
H    -1.05690   4.33659   2.25417
N    -1.33729   1.88363   0.23093
N     2.05792  -0.83112   1.14332
N    -1.66576  -0.54442  -1.81006
N     0.65391  -2.23380  -1.04291
C    -0.72218   2.53805   1.22483
C     3.24853  -0.32994   0.80404
H     3.30558   0.15956  -0.16247
C    -2.44585   3.81419   0.70528
C    -2.42269   2.66244  -0.11396
C    -2.80932  -1.16728  -1.51852
H    -2.90602  -1.54111  -0.50500
C    -3.40795   2.47844  -1.07536
H    -3.40881   1.60638  -1.71075
C     1.95509  -1.44356   2.32591
H     0.97799  -1.84331   2.57583
C     1.47322  -4.67561  -2.09699
H     1.79253  -5.62345  -2.50513
C    -3.42625   4.78047   0.58564
H    -3.43147   5.65471   1.21833
C     3.01538  -1.56498   3.20784
H     2.87437  -2.06138   4.15502
C     0.20290  -3.38549  -0.54257
H    -0.49092  -3.30355   0.28711
C     4.24402  -1.03041   2.85533
H     5.08889  -1.09707   3.52490
C     4.36139  -0.40592   1.62431
H     5.29683   0.02515   1.30430
C     0.58401  -4.62292  -1.03565
H     0.19027  -5.52458  -0.59333
C    -3.83318  -1.33214  -2.43758
H    -4.74145  -1.83711  -2.14853
C     1.94242  -3.48220  -2.62208
H     2.63515  -3.47150  -3.44888
C    -3.66895  -0.83106  -3.71927
H    -4.45004  -0.93477  -4.45815
C     1.50799  -2.28973  -2.06637
H     1.85287  -1.33551  -2.44981
C    -1.50921  -0.07009  -3.04754
H    -0.56887   0.42975  -3.25304
C    -4.38662   3.44838  -1.19097
H    -5.16311   3.32641  -1.93172
C    -4.39879   4.57825  -0.37845
H    -5.18187   5.31072  -0.50269
C    -2.47982  -0.19028  -4.02909
H    -2.30590   0.21691  -5.01268
O     0.94259   0.69299  -1.16352
