46

Pd    0.00000   0.00000   0.00000
Cl    2.21873   0.26943  -0.01280
S    -2.44260  -0.27363   0.23140
O    -2.02178   1.39034  -3.17833
N    -1.91261   1.96065  -0.97526
N    -0.24883   1.40122   1.42777
C    -2.38852   1.57925   0.33226
H    -3.40552   1.94883   0.51236
C    -2.19668   1.11781  -2.02043
C    -2.81308  -0.19648  -1.54440
H    -2.26695  -1.01851  -2.02395
C    -1.46069   1.97400   1.44193
C    -1.83931   2.86561   2.43258
H    -2.82920   3.29454   2.42023
C    -0.92778   3.19162   3.42530
H    -1.19683   3.88387   4.20756
C     0.33095   2.61118   3.38807
H     1.07166   2.84103   4.13636
C     0.63065   1.71682   2.37538
H     1.60066   1.24022   2.29603
C    -0.90089   2.95490  -1.09350
C    -1.10382   4.22275  -0.56664
H    -2.05555   4.47562  -0.12291
C    -0.07909   5.15115  -0.62005
H    -0.23255   6.13811  -0.21025
C     1.13552   4.81629  -1.19510
H     1.93334   5.54230  -1.22561
C     1.32690   3.55492  -1.73525
H     2.27191   3.29156  -2.18291
C     0.31318   2.61346  -1.68608
H     0.45080   1.62813  -2.13575
C    -4.30949  -0.28495  -1.86326
H    -4.41185  -0.21239  -2.94837
H    -4.68402  -1.25754  -1.54012
C    -5.07186   0.82173  -1.19133
C    -5.11701   2.08975  -1.76047
H    -4.65423   2.26074  -2.72122
C    -5.74769   3.13039  -1.10165
H    -5.77633   4.11116  -1.55245
C    -6.34334   2.91471   0.13066
H    -6.83612   3.72728   0.64370
C    -6.31492   1.65139   0.69728
H    -6.78654   1.47522   1.65277
C    -5.68154   0.61042   0.03974
H    -5.65647  -0.37296   0.48632
O     0.11952  -1.15789  -1.16940
