26

Pd    0.00000   0.00000   0.00000
Cl   -0.84474   1.81625  -0.97100
N    -1.26747  -1.23352  -0.68888
N    -0.92232  -2.47715  -0.75140
N     0.90793  -1.76603   0.48594
C     2.03776  -2.03306   1.13643
H     2.49702  -1.19467   1.64743
C     2.59351  -3.29768   1.15409
H     3.51304  -3.47291   1.68766
C     1.95163  -4.33268   0.47333
H     2.37174  -5.32672   0.47282
C     0.77876  -4.07167  -0.19670
H     0.23848  -4.82992  -0.73822
C     0.26663  -2.76572  -0.17901
C    -2.55865  -0.93236  -1.10181
C    -3.26157   0.07467  -0.43059
H    -2.81019   0.55277   0.43582
C    -4.53259   0.41232  -0.85161
H    -5.07595   1.18959  -0.33717
C    -5.10762  -0.23916  -1.93247
H    -6.09511   0.04059  -2.26665
C    -4.41979  -1.25403  -2.58258
H    -4.87209  -1.76302  -3.42022
C    -3.15426  -1.61301  -2.16722
H    -2.59339  -2.38730  -2.66778
O     1.12855   0.93345   0.75997
