62

C    -1.85410  -0.33914  -0.74770
C    -3.74063  -0.06943  -1.91873
H    -4.39235   0.36133  -2.65134
C    -3.94916  -1.07029  -1.03375
H    -4.81051  -1.67662  -0.84414
C    -1.85661   1.49120  -2.40534
H    -1.43312   2.15925  -1.64898
H    -2.64539   2.02667  -2.94402
C    -0.77689   1.06423  -3.36731
C    -0.98211  -0.01013  -4.22391
H    -1.91669  -0.55252  -4.19064
C     0.00607  -0.39752  -5.11115
H    -0.16093  -1.23692  -5.76993
C     1.20595   0.29208  -5.15694
H     1.97661  -0.00968  -5.85095
C     1.41384   1.36780  -4.31079
H     2.34951   1.90661  -4.34521
C     0.42841   1.74957  -3.41749
H     0.59126   2.58518  -2.75365
C    -2.67169  -2.08756   0.82206
H    -1.64362  -2.01145   1.18619
H    -2.90458  -3.11748   0.53895
C    -3.63097  -1.64745   1.89829
C    -3.49021  -0.42567   2.50642
H    -2.67652   0.22468   2.21774
C    -4.39295  -0.00250   3.49226
H    -4.25168   0.96495   3.94949
C    -5.43508  -0.80283   3.87095
H    -6.13304  -0.48626   4.63319
C    -5.62003  -2.06069   3.26472
C    -6.67801  -2.93159   3.59936
H    -7.38234  -2.63609   4.36504
C    -6.79428  -4.12989   2.94964
H    -7.58978  -4.82220   3.17825
C    -5.84774  -4.44885   1.96044
H    -5.91557  -5.38547   1.42036
C    -4.71175  -2.48983   2.25720
C     1.93388   0.89045   0.31310
H     1.77696   1.94822   0.51275
C     2.84417   0.61919  -0.86050
H     2.71528   1.42615  -1.58314
H     3.88677   0.64820  -0.52469
C     2.54990  -0.72248  -1.55684
H     3.20107  -1.50484  -1.16287
H     2.77282  -0.62139  -2.62062
C     1.10634  -1.15649  -1.39996
H     0.58021  -1.26405  -2.34518
C     0.66816  -1.97764  -0.34197
H    -0.12811  -2.68340  -0.57685
C     1.56577  -2.47222   0.77226
H     0.93478  -2.94781   1.52688
H     2.23765  -3.24589   0.38412
C     2.38392  -1.34911   1.43732
H     3.37108  -1.27904   0.97782
H     2.53543  -1.59762   2.48962
C     1.70107  -0.00306   1.34071
H     1.33878   0.39589   2.28554
Ir    0.00000   0.00000   0.00000
N    -2.46011   0.37237  -1.72575
N    -2.78676  -1.22035  -0.32581
N    -4.85440  -3.67485   1.62631
O    -0.70915   1.28983   0.74562
