64

Os    0.00000   0.00000   0.00000
Cl    1.75420   1.47482  -0.18910
P    -0.57835  -0.13738   3.23585
N    -0.41094   0.18628  -2.06013
N    -1.68499   0.26187  -2.47138
N    -1.62708  -1.26556   0.05959
N    -2.74854  -0.94494  -0.58966
N    -1.32160   1.60117   0.07929
N    -2.50491   1.52369  -0.53540
N     0.18563  -0.01067   1.87428
C    -1.71820   0.31227  -3.80915
H    -2.64789   0.37799  -4.33734
C    -0.42114   0.26567  -4.27894
H    -0.09159   0.28489  -5.29666
C     0.36783   0.18834  -3.13392
H     1.43574   0.13684  -3.03790
C    -3.65251  -1.92074  -0.42518
H    -4.62359  -1.85685  -0.87210
C    -3.08986  -2.90552   0.35849
H    -3.53639  -3.82340   0.67890
C    -1.80503  -2.44342   0.63761
H    -1.01837  -2.90325   1.20446
C    -3.20538   2.63921  -0.29572
H    -4.18367   2.77839  -0.70895
C    -2.44542   3.46497   0.50833
H    -2.70456   4.43153   0.88764
C    -1.25867   2.76454   0.71475
H    -0.38392   3.04173   1.27081
C    -2.37243  -0.51914   3.22761
C    -3.22284   0.45684   2.71737
H    -2.81972   1.43434   2.48474
C    -4.56394   0.18241   2.53105
H    -5.21971   0.94265   2.13229
C    -5.06433  -1.06832   2.85889
H    -6.11246  -1.28437   2.71526
C    -4.22099  -2.04154   3.36930
H    -4.61319  -3.01428   3.62726
C    -2.87425  -1.77558   3.54145
H    -2.21038  -2.53629   3.92828
C    -0.43904   1.43491   4.14384
C    -1.32965   1.81591   5.13814
H    -2.16877   1.18075   5.38834
C    -1.14271   3.01997   5.79384
H    -1.83321   3.32323   6.56748
C    -0.07462   3.83693   5.45800
H     0.06363   4.77667   5.97218
C     0.81278   3.45414   4.46424
H     1.64209   4.09365   4.20145
C     0.63418   2.25056   3.80698
H     1.30458   1.92865   3.02058
C     0.22482  -1.41229   4.24714
C     1.23209  -2.16397   3.65665
H     1.49130  -1.97021   2.62364
C     1.88221  -3.13406   4.39839
H     2.66404  -3.72408   3.94439
C     1.53092  -3.34363   5.72259
H     2.04066  -4.09891   6.30252
C     0.53047  -2.58466   6.31116
H     0.26454  -2.74883   7.34531
C    -0.12580  -1.61434   5.57603
H    -0.90619  -1.01540   6.02526
B    -2.82848   0.32720  -1.44522
H    -3.88332   0.44090  -1.96227
O     0.95691  -1.30234  -0.33274
