52

Fe    0.00000   0.00000   0.00000
Br    1.54545   0.38509   1.56155
P     0.40804   1.55361  -1.43759
P     0.66546  -1.41811  -1.48896
N     0.70647   0.74301  -2.91043
N     1.33577  -0.53597  -2.79481
H     2.34932  -0.43197  -2.66804
C     1.85042   2.73939  -1.12147
H     1.76248   2.99967  -0.05943
C     3.15152   1.95664  -1.30182
H     3.98969   2.52471  -0.90288
H     3.34800   1.76411  -2.35590
H     3.10955   1.00985  -0.76397
C     1.88329   4.02725  -1.93850
H     2.79667   4.57083  -1.69875
H     1.04330   4.67668  -1.70585
H     1.88779   3.82353  -3.00694
C    -0.98641   2.69961  -1.88165
H    -0.61602   3.46753  -2.56916
C    -2.13364   1.94491  -2.53881
H    -2.94668   2.63238  -2.76504
H    -2.51711   1.17792  -1.87162
H    -1.81442   1.46913  -3.46208
C    -1.43575   3.35086  -0.57491
H    -2.24733   4.05355  -0.75484
H    -0.61761   3.88576  -0.09378
H    -1.79863   2.58812   0.11488
C     1.00286   1.36717  -4.18029
H     0.65862   0.71303  -4.98549
H     2.07522   1.54601  -4.32549
H     0.47012   2.31257  -4.24503
C     2.15451  -2.43459  -1.00847
H     2.90924  -1.66426  -0.78369
C     1.89913  -3.20751   0.28202
H     2.83859  -3.57485   0.69059
H     1.24554  -4.05921   0.11522
H     1.43704  -2.56286   1.02903
C     2.67896  -3.33378  -2.12200
H     3.66691  -3.70621  -1.85546
H     2.75668  -2.79183  -3.06286
H     2.02606  -4.19094  -2.26691
C    -0.42999  -2.55585  -2.48273
H     0.22988  -2.99621  -3.24032
C    -1.06867  -3.64539  -1.63155
H    -1.80314  -4.19126  -2.22152
H    -1.58332  -3.21063  -0.77707
H    -0.33183  -4.35825  -1.26994
C    -1.49811  -1.72624  -3.18618
H    -2.07340  -2.35602  -3.86241
H    -1.04284  -0.92511  -3.76161
H    -2.18245  -1.29361  -2.46115
O    -1.57704  -0.40202   0.27170
