28

Cl    1.80870  -1.21092  -0.70838
Pt    0.00000   0.00000   0.00000
S    -1.20182  -1.86066   0.27343
O    -1.44108  -2.20200   1.65710
O     3.20348   3.58692  -0.52771
N     1.03115   1.78108  -0.14647
C     1.51700   2.12719  -1.49002
C     2.15263   3.52217  -1.46280
C     2.75823   3.26652   0.77003
C     2.14329   1.86328   0.81356
C    -2.81141  -1.72935  -0.56206
C    -0.59549  -3.35950  -0.55669
H     0.31671   2.47276   0.12694
H     2.26139   1.38183  -1.78351
H     0.68191   2.10471  -2.19464
H     1.38375   4.27332  -1.21800
H     2.59277   3.76435  -2.43091
H     3.63617   3.32333   1.41462
H     2.01465   4.00728   1.10669
H     1.77335   1.64012   1.81846
H     2.89315   1.12001   0.52743
H    -3.34825  -0.89584  -0.12111
H    -2.62833  -1.54274  -1.61469
H    -3.36139  -2.65071  -0.40990
H    -1.30163  -4.15909  -0.36525
H    -0.49801  -3.15174  -1.61583
H     0.37407  -3.60599  -0.13757
O    -1.29852   0.90307   0.46991
