49

Ru    0.00000   0.00000   0.00000
O    -1.72515   1.78872  -1.32481
O     0.74189   0.16102  -3.56367
N    -0.97922   1.07978  -0.80163
N     1.14039  -1.38779   0.99817
N     0.60521  -2.52990   1.45024
N    -1.42160  -0.45144   1.54436
N    -1.66826  -1.71554   1.88700
N    -0.71392  -1.68431  -1.00326
N    -1.11067  -2.75062  -0.29684
C     2.41161  -1.35435   1.38905
C     2.70785  -2.50615   2.11075
C     1.52849  -3.22374   2.12449
C    -2.17686   0.33870   2.29147
C    -2.94597  -0.44199   3.15312
C    -2.58760  -1.74231   2.86133
C    -0.99644  -1.90138  -2.28027
C    -1.59283  -3.15387  -2.41119
C    -1.64414  -3.65622  -1.12763
C     1.62287   0.24535  -1.37071
C     1.11648   0.85246  -2.62163
C     1.07332   2.33621  -2.73869
C     0.89008   2.87614  -4.01136
C     0.82761   4.24180  -4.20086
C     0.93448   5.11063  -3.12224
C     1.10968   4.57109  -1.85106
C     1.18358   3.20695  -1.65422
C     0.85479   6.59459  -3.30541
B    -0.88068  -2.84984   1.21741
H    -1.17955  -3.90844   1.64264
H     3.04748  -0.52070   1.15369
H     3.64251  -2.77342   2.55747
H     1.29630  -4.17062   2.56794
H    -2.13495   1.40732   2.18945
H    -3.65498  -0.10420   3.87961
H    -2.92393  -2.66763   3.28242
H    -0.73281  -1.18818  -3.04071
H    -1.93374  -3.62043  -3.31135
H    -2.01884  -4.58989  -0.76045
H     2.39896   0.86348  -0.91655
H     2.01977  -0.74950  -1.60485
H     0.79951   2.19778  -4.84695
H     0.68949   4.63874  -5.19672
H     1.18639   5.23384  -1.00088
H     1.30537   2.83109  -0.64906
H     1.74458   7.07528  -2.90064
H     0.76347   6.85524  -4.35686
H    -0.00793   6.99291  -2.77216
O     0.66145   1.09414   1.04300
