31

Zn    0.00000   0.00000   0.00000
Cl    2.09540   0.19975  -0.68069
N    -0.22508   1.92500   1.01256
N    -2.09222   0.92851   1.93801
N    -1.47547  -0.19480   1.64163
N    -0.01654  -2.09189   0.56933
C     0.53575   2.97650   0.74911
H     1.44345   2.76340   0.20177
C     0.19935   4.25813   1.14430
H     0.84003   5.09085   0.90708
C    -0.97889   4.43423   1.85698
H    -1.27450   5.41553   2.19676
C    -1.77293   3.34026   2.14178
H    -2.67297   3.46446   2.72080
C    -1.36625   2.08274   1.68580
C    -3.50553   0.94442   2.24830
H    -4.01326   0.25102   1.57388
H    -3.91625   1.93425   2.07833
H    -3.68441   0.64344   3.28366
C    -1.94033  -1.37834   1.75541
H    -2.92043  -1.63448   2.15009
C    -1.10266  -2.45222   1.26374
C    -1.42094  -3.79562   1.46878
H    -2.30850  -4.06019   2.02288
C    -0.58403  -4.76802   0.95266
H    -0.80949  -5.81456   1.09489
C     0.54681  -4.37702   0.25037
H     1.22444  -5.10436  -0.16631
C     0.78579  -3.02092   0.08225
H     1.64761  -2.65829  -0.46120
O    -1.34040   0.10927  -0.95597
