43

Os    0.00000   0.00000   0.00000
S     0.98138   1.47615  -1.34284
S    -1.44589   1.41711   0.98249
S    -1.59013  -0.51293  -1.55979
S     0.32016  -2.51084   1.70699
Cl    1.53991   0.50695   1.64696
O     0.44642   1.47599  -2.70013
O    -1.89856   2.47827   0.07866
O    -2.64863  -1.29908  -0.92189
O    -0.75376  -1.51021   1.36098
C     1.00997   3.20412  -0.77783
H     1.49206   3.81051  -1.53478
H     1.55391   3.22524   0.15912
H    -0.01930   3.51723  -0.63684
C     2.77750   1.23998  -1.48772
H     2.94161   0.27023  -1.94535
H     3.18409   1.24667  -0.48274
H     3.19046   2.03034  -2.10217
C    -0.99606   2.26134   2.53791
H    -0.13218   2.88588   2.34315
H    -0.73536   1.50341   3.26549
H    -1.83831   2.86204   2.85947
C    -2.94902   0.60004   1.59575
H    -3.69566   1.35894   1.79731
H    -2.68786   0.04199   2.48575
H    -3.28713  -0.08460   0.82275
C    -1.06211  -1.44855  -3.03073
H    -0.56030  -2.35026  -2.69898
H    -0.36956  -0.81343  -3.56964
H    -1.93618  -1.68980  -3.62319
C    -2.45826   0.81188  -2.45563
H    -3.31649   0.36851  -2.94602
H    -1.76297   1.24735  -3.16065
H    -2.77101   1.56075  -1.73623
C    -0.24778  -4.03667   0.88017
H    -1.33041  -4.01238   0.84185
H     0.11511  -4.90396   1.41740
H     0.16189  -4.02085  -0.12351
C    -0.22863  -3.00396   3.38910
H    -0.05690  -2.15405   4.04025
H     0.36327  -3.84661   3.72483
H    -1.28309  -3.25037   3.36647
O     0.95803  -1.19151  -0.62046
