33

Ti    0.00000   0.00000   0.00000
O    -1.03370  -0.17616   1.44433
O    -2.68845   0.55984   2.73232
C     0.11557   2.05305   1.16919
C     1.42824   1.52870   1.05451
H     2.09955   1.31356   1.87466
C     1.79348   1.55307  -0.30991
H     2.78799   1.37766  -0.69928
C     0.69252   2.02297  -1.05012
H     0.67901   2.23805  -2.11205
C    -0.33750   2.34218  -0.13698
H    -1.28387   2.79461  -0.40167
C     1.93392  -1.35122   0.21868
H     2.87927  -1.08583   0.67338
C     0.87194  -2.01267   0.86512
H     0.84057  -2.30505   1.90748
C    -0.09555  -2.33901  -0.11072
H    -1.00049  -2.90968   0.05671
C     0.38345  -1.89325  -1.36357
H    -0.08535  -2.07907  -2.32094
C     1.62775  -1.27146  -1.16082
H     2.29522  -0.93315  -1.94395
C    -0.76195   2.00245   2.38256
C    -1.62524   0.71045   2.19059
C     0.02842   1.78122   3.67934
H     0.73433   2.59513   3.83472
H     0.57090   0.83556   3.64675
H    -0.65985   1.74915   4.52089
C    -1.68283   3.21502   2.52135
H    -2.38870   3.03967   3.32919
H    -2.25069   3.38108   1.60985
H    -1.09859   4.10574   2.74158
O    -1.29258   0.07509  -1.02279
