30

Pd    0.00000   0.00000   0.00000
I    -2.58708  -0.36913   0.04589
I     2.55796   0.60800  -0.22151
P    -0.19704   1.71676  -1.42066
C    -1.90063   2.24632  -2.04824
H    -2.35502   1.38467  -2.55213
H    -2.52515   2.46812  -1.17458
C     0.31576   3.43994  -0.92266
H    -0.23824   3.73265  -0.02152
H     1.38140   3.44736  -0.67451
C     0.58713   1.71935  -3.11443
H     1.67115   1.60896  -3.01638
H     0.21482   0.85883  -3.68456
C    -1.29566   4.60852  -2.26818
H    -1.40759   5.46291  -2.94435
H    -1.86118   4.79117  -1.34964
C     0.82618   4.11800  -3.17894
H     0.75877   4.97333  -3.85883
H     1.87110   3.95090  -2.91809
N     0.30392   2.94085  -3.84976
N     0.07121   4.41334  -1.97428
C    -3.29952   3.70172  -3.36455
H    -3.32435   4.55820  -4.03761
H    -3.90186   3.92206  -2.48385
H    -3.72945   2.83778  -3.87026
C    -1.05824   3.10920  -4.18009
H    -1.45155   2.20362  -4.65141
H    -1.16784   3.95678  -4.86522
N    -1.92135   3.40807  -2.96341
O     0.27678  -1.23750   1.05570
