33

Os    0.00000   0.00000   0.00000
Br   -1.24030  -0.22415   2.21606
O    -1.73703   2.31102  -0.91968
O     1.90904   2.08807   1.09515
O     2.51167  -6.40299   1.37022
O     4.13619  -5.17500   2.29115
H     4.52233  -6.03849   2.50848
O    -3.04343  -6.06324  -1.77737
O    -4.55661  -4.64464  -2.60975
H    -5.01694  -5.45648  -2.87614
N     1.07809  -1.66423   0.57609
N    -1.20526  -1.52514  -0.69678
C    -1.08455   1.43900  -0.57563
C     1.19147   1.30026   0.68409
C     2.24104  -1.65356   1.22569
H     2.65834  -0.68265   1.46050
C     2.91155  -2.80173   1.59874
H     3.84993  -2.74432   2.12418
C     2.34400  -4.03292   1.27996
C     1.13339  -4.05320   0.60097
H     0.69563  -5.00658   0.35464
C     0.52144  -2.85197   0.26058
C    -0.75550  -2.77405  -0.45570
C    -1.46856  -3.89416  -0.86822
H    -1.11740  -4.89542  -0.68003
C    -2.66985  -3.72681  -1.54346
C    -3.12460  -2.43352  -1.78883
H    -4.05124  -2.26242  -2.31038
C    -2.35819  -1.37328  -1.34667
H    -2.68675  -0.35704  -1.52355
C     2.98381  -5.33057   1.63895
C    -3.42075  -4.93938  -1.97686
O     0.79440  -0.09508  -1.44305
