33

Os    0.00000   0.00000   0.00000
I     1.32008   0.10589  -2.37982
O    -1.74996  -2.29377  -0.94550
O     1.90679  -2.09911   1.08404
O     2.53192   6.41355   1.41462
O     4.13591   5.17440   2.35773
H     4.52425   6.03435   2.58470
O    -3.02304   6.11866  -1.72190
O    -4.55399   4.71405  -2.54690
H    -5.01354   5.52951  -2.80318
N     1.08416   1.68357   0.59061
N    -1.20275   1.56238  -0.68608
C    -1.08936  -1.43194  -0.58967
C     1.18821  -1.31019   0.67550
C     2.24831   1.66664   1.24093
H     2.66483   0.69256   1.46768
C     2.91970   2.81009   1.62443
H     3.85765   2.74627   2.14988
C     2.35393   4.04504   1.31602
C     1.14464   4.07361   0.63547
H     0.70942   5.03003   0.39638
C     0.52977   2.87708   0.28413
C    -0.74792   2.80927  -0.43273
C    -1.45849   3.93536  -0.83289
H    -1.10325   4.93354  -0.63600
C    -2.66204   3.77896  -1.50623
C    -3.12256   2.48980  -1.76378
H    -4.05143   2.32712  -2.28403
C    -2.35908   1.42253  -1.33555
H    -2.69241   0.40883  -1.52279
C     2.99519   5.33862   1.68805
C    -3.40997   4.99879  -1.92494
O    -0.80617   0.09298   1.43665
