53

Re    0.00000   0.00000   0.00000
S     2.19997  -4.08889  -0.61709
S    -1.76328  -1.34808  -1.14004
S     3.44832  -0.93312  -3.04469
S     1.95321   0.90015   1.28994
O    -0.46615   1.46535  -0.61490
N     0.85740  -2.03762   0.26794
N     0.36149  -2.84006  -1.94621
N    -1.28159  -2.51746  -3.46202
N     1.41057  -0.09793  -1.68031
N     3.42486  -0.60405  -0.46894
N     4.27001  -0.31144   1.59751
C     2.45606  -3.57536   1.02671
C     1.62015  -2.48714   1.33034
C     1.60308  -1.99647   2.63395
H     0.91872  -1.20713   2.90463
C     2.44455  -2.55709   3.57323
H     2.42472  -2.18128   4.58482
C     3.30568  -3.59781   3.24359
H     3.95991  -4.01401   3.99472
C     3.30991  -4.12442   1.96595
H     3.94650  -4.95263   1.69839
C     0.98417  -2.82940  -0.78839
C    -0.78843  -2.27615  -2.24672
C    -0.57918  -3.35750  -4.40191
H    -0.24844  -2.76146  -5.25517
H    -1.24289  -4.14928  -4.75291
H     0.28616  -3.79331  -3.91080
C    -2.55228  -2.01054  -3.90734
H    -2.81249  -1.11421  -3.34759
H    -3.34002  -2.75282  -3.75489
H    -2.48556  -1.77338  -4.96860
C     2.01020  -0.45901  -3.90742
C     1.03576  -0.01393  -2.99998
C    -0.16260   0.50328  -3.48350
H    -0.88405   0.90519  -2.78548
C    -0.37987   0.52043  -4.84615
H    -1.30250   0.92920  -5.22878
C     0.57501   0.03264  -5.73355
H     0.38040   0.05322  -6.79516
C     1.78491  -0.45213  -5.27225
H     2.54590  -0.80445  -5.94984
C     2.66539  -0.48430  -1.53098
C     3.27435  -0.08869   0.73342
C     5.44015  -1.06537   1.21510
H     5.48608  -1.99202   1.79143
H     6.33696  -0.47619   1.41292
H     5.38215  -1.30201   0.15664
C     4.29822   0.23684   2.92804
H     4.83807   1.18731   2.94296
H     4.79932  -0.46927   3.58909
H     3.28528   0.41199   3.28427
O    -0.85682  -0.21236   1.39401
