45

Zn    0.00000   0.00000   0.00000
N     0.33132  -2.54922  -0.99107
N     0.66550  -1.29272  -1.36499
N     0.66672  -1.09532   1.52659
N     0.29818  -2.38447   1.34691
N    -1.81499  -0.82333   0.06187
N    -1.69311  -2.16900   0.12919
C     1.35124  -1.37851  -2.49772
C     1.46219  -2.72283  -2.86416
C     0.80076  -3.43748  -1.88202
C     1.87458  -0.17371  -3.19032
C     0.60178  -4.90091  -1.73614
C     1.31969  -1.01977   2.67923
C     1.37486  -2.29117   3.25734
C     0.71511  -3.13327   2.38065
C     1.86729   0.26418   3.18597
C     0.44997  -4.59055   2.47295
C    -3.11024  -0.53719   0.02913
C    -3.84242  -1.72689   0.07614
C    -2.90681  -2.74349   0.13999
C    -3.60162   0.86238  -0.04074
C    -3.09721  -4.21418   0.19672
C    -0.43045  -2.87239   0.19579
H     1.95619  -3.11741  -3.72834
H     2.95654  -0.23806  -3.29427
H     1.44274  -0.09337  -4.18678
H     1.62370   0.71856  -2.62106
H     0.53105  -5.36830  -2.71461
H     1.44442  -5.34354  -1.20528
H    -0.30375  -5.09124  -1.16643
H     1.83485  -2.55825   4.18664
H     1.43576   0.50169   4.15706
H     2.94765   0.19452   3.30323
H     1.63606   1.06578   2.48799
H     1.26145  -5.08605   2.99911
H    -0.47428  -4.77026   3.02178
H     0.34503  -5.00634   1.47451
H    -4.90821  -1.82951   0.06667
H    -4.25698   0.99090  -0.90043
H    -4.16778   1.10841   0.85651
H    -2.76004   1.54623  -0.12626
H    -4.01302  -4.45268   0.73079
H    -2.24657  -4.67361   0.69279
H    -3.17226  -4.62230  -0.81103
O     0.24579   1.62761  -0.11395
