60

Re    0.00000   0.00000   0.00000
Br   -1.38005   1.58359   1.30176
P     1.10629   3.54300  -0.60867
O    -1.01324  -1.29977   0.20688
O     1.16943   2.05200  -0.53673
N    -0.71815   0.52458  -2.00620
N     1.52568  -0.51146  -1.11457
C    -1.91371   0.90261  -2.41464
C    -2.09626   1.37090  -3.73204
C    -1.05003   1.41175  -4.60909
C     0.21081   0.92241  -4.21083
C     1.33970   0.84397  -5.04643
C     2.50773   0.29795  -4.57177
C     2.61238  -0.18845  -3.27080
C     1.53214  -0.10837  -2.39852
C     0.31757   0.47063  -2.87607
C    -3.08403   0.79424  -1.50130
C    -0.25344   4.08256  -1.69350
C    -0.00706   4.24734  -3.05035
C    -1.04388   4.58239  -3.90270
C    -2.32663   4.74001  -3.40339
C    -2.57433   4.56004  -2.05199
C    -1.54004   4.23306  -1.19214
C     0.94283   4.33202   1.01042
C     1.46029   3.65240   2.10596
C     1.37416   4.21467   3.36586
C     0.78591   5.45810   3.52719
C     0.28536   6.14281   2.43083
C     0.36195   5.58392   1.16874
C     2.63706   4.15427  -1.36323
C     3.52645   3.24394  -1.91560
C     4.69572   3.69248  -2.50371
C     4.97472   5.04871  -2.53601
C     4.08727   5.95831  -1.98037
C     2.91752   5.51427  -1.39288
H    -3.08139   1.69767  -4.02546
H    -1.18023   1.78463  -5.61447
H     1.26595   1.20386  -6.06083
H     3.36948   0.23350  -5.21979
H     3.53610  -0.63227  -2.92841
H    -3.21853   1.71641  -0.93599
H    -3.98858   0.60740  -2.07477
H    -2.93513  -0.01637  -0.78799
H     0.99739   4.11687  -3.43172
H    -0.84983   4.72193  -4.95599
H    -3.13458   5.00286  -4.07013
H    -3.57463   4.67813  -1.66308
H    -1.72557   4.08674  -0.13709
H     1.91153   2.67930   1.97441
H     1.75917   3.67598   4.21751
H     0.71200   5.89569   4.51143
H    -0.17344   7.11193   2.56072
H    -0.04023   6.10825   0.31284
H     3.29306   2.18946  -1.87959
H     5.38856   2.98503  -2.93447
H     5.88793   5.39996  -2.99282
H     4.31050   7.01460  -2.00478
H     2.22082   6.21397  -0.95369
H     2.39323  -0.92970  -0.79039
O     0.97861  -0.16225   1.31852
