39

Pd    0.00000   0.00000   0.00000
Cl    1.49661   1.60702   0.32667
N     0.57758  -1.11560   1.52119
N    -1.08813  -1.65095  -0.38943
C     1.20247  -0.53582   2.67498
H     2.08307   0.01975   2.33419
H     1.48751  -1.29118   3.41547
C     0.22135   0.47212   3.31479
H    -0.15527   1.12968   2.50960
C    -0.96071  -0.25843   3.94701
H    -1.51821  -0.81618   3.19467
H    -1.63939   0.45596   4.40589
H    -0.61961  -0.95110   4.71541
C     0.96293   1.32065   4.34047
H     0.28138   2.02844   4.80470
H     1.76062   1.87903   3.85860
H     1.39199   0.69323   5.11957
C     0.15917  -2.34414   1.49628
C     0.45956  -3.35596   2.53184
C    -0.56987  -3.95694   3.25161
H    -1.59332  -3.66626   3.06362
C    -0.28206  -4.90535   4.21619
H    -1.08558  -5.36105   4.77502
C     1.03110  -5.26912   4.46530
H     1.25293  -6.01045   5.21780
C     2.05907  -4.68073   3.74704
H     3.08343  -4.96428   3.93557
C     1.77818  -3.72640   2.78638
H     2.57737  -3.27286   2.21813
C    -0.70372  -2.69689   0.38147
C    -1.92051  -1.86187  -1.40602
H    -2.18912  -0.98485  -1.98467
C    -2.40949  -3.11853  -1.71432
H    -3.08305  -3.24414  -2.54616
C    -2.00960  -4.20652  -0.94488
H    -2.36253  -5.20078  -1.17148
C    -1.14749  -3.99410   0.11231
H    -0.80408  -4.81178   0.72641
O    -0.61292   0.86120  -1.26695
