37

Zr    0.00000   0.00000   0.00000
Cl    0.90241  -1.74893   1.26164
Si    1.82594   2.76775   0.27836
C     0.20685   2.20449   1.08574
C    -1.03970   2.20974   0.40022
H    -1.32996   2.91553  -0.37005
C    -1.90219   1.28038   1.01716
H    -2.95432   1.13753   0.79875
C    -1.19156   0.66021   2.07802
C     0.11036   1.21444   2.10385
H     0.86535   1.00335   2.85426
C    -1.76632  -0.37382   3.01189
H    -0.97186  -0.76585   3.65413
H    -2.53648   0.08384   3.64198
C    -2.37017  -1.49258   2.20624
H    -1.65966  -2.16578   1.73410
C    -3.66907  -1.66766   2.04625
H    -4.39299  -1.01724   2.51263
H    -4.06419  -2.46652   1.44309
C     1.78252   1.36101  -0.98841
C     0.77372   1.22371  -1.98762
H     0.22452   2.04019  -2.44428
C     0.76817  -0.11175  -2.43952
H     0.19335  -0.50039  -3.27140
C     1.72745  -0.82916  -1.69396
H     2.00692  -1.86504  -1.84863
C     2.34284   0.07042  -0.79686
H     3.18219  -0.16286  -0.15117
C     1.72064   4.50240  -0.49984
H     1.64935   5.26336   0.26955
H     0.85765   4.60685  -1.14879
H     2.60564   4.71158  -1.09079
C     3.29657   2.59087   1.47508
H     3.35031   1.59234   1.89945
H     3.21535   3.29711   2.29415
H     4.23366   2.78704   0.96574
O    -1.23208  -0.84166  -0.70434
