57

Ir    0.00000   0.00000   0.00000
O    -2.83223   0.17410  -1.01543
C    -1.74413   0.20617  -0.65913
O     0.81889   2.84654  -0.51748
C     0.51841   1.75261  -0.29661
N     2.69236  -1.33659   0.16786
N     1.96723  -0.38018   2.15659
C     1.81737  -0.60310   0.85188
C     2.48044  -1.60769  -1.24238
H     2.17772  -2.64667  -1.38580
H     3.40577  -1.43091  -1.79376
H     1.69046  -0.95598  -1.63112
C     2.99692  -0.85793   3.06416
H     3.02533  -1.94644   3.09838
H     2.76309  -0.48353   4.06016
H     3.98417  -0.48923   2.78253
C     3.86454  -2.00862   0.64392
C     3.77813  -3.33153   1.08187
C     4.94107  -3.97301   1.48383
H     4.87910  -4.99364   1.83390
C     6.17525  -3.34039   1.44335
C     6.23489  -2.03276   0.98716
H     7.18750  -1.52395   0.94536
C     5.09474  -1.35457   0.57874
C     2.47175  -4.06452   1.13106
H     1.61600  -3.39901   1.04643
H     2.38719  -4.62712   2.05940
H     2.42018  -4.78139   0.31097
C     7.41644  -4.06755   1.86128
H     7.77069  -4.69677   1.04435
H     7.21844  -4.71069   2.71593
H     8.20894  -3.36954   2.11941
C     5.21331   0.06431   0.10195
H     5.95320   0.13004  -0.69492
H     5.54980   0.70879   0.91503
H     4.26650   0.44756  -0.27068
C     1.03090   0.52125   2.77042
C    -0.06700   0.01438   3.47364
C    -0.94852   0.91533   4.05391
H    -1.81153   0.53537   4.58154
C    -0.74685   2.28545   3.98072
C     0.39188   2.75717   3.34434
H     0.58339   3.81997   3.31502
C     1.29653   1.89394   2.74627
C    -0.27204  -1.45901   3.63045
H     0.56377  -1.91016   4.16426
H    -0.34695  -1.94354   2.65795
H    -1.18504  -1.65946   4.18441
C    -1.73818   3.23686   4.57643
H    -2.49135   3.49367   3.83121
H    -1.25326   4.15646   4.89517
H    -2.24609   2.78925   5.42734
C     2.55839   2.43238   2.14028
H     3.35440   2.43011   2.88651
H     2.41240   3.45511   1.80447
H     2.88207   1.83232   1.29441
O    -0.41979  -1.58326   0.19893
