54

Ti    0.00000   0.00000   0.00000
O    -0.56762   1.10354   1.15677
C    -1.46125   2.01159   1.40796
C    -2.51135   2.19997   0.46534
C    -3.48192   3.18359   0.70578
H    -4.27559   3.32587  -0.01299
C    -3.41982   3.94801   1.84331
H    -4.16661   4.70353   2.03276
C    -2.38879   3.75786   2.76298
H    -2.37605   4.38226   3.64108
C    -1.39998   2.81011   2.57864
C    -0.25080   2.59741   3.55426
C    -0.34944   3.52027   4.77334
H     0.48940   3.32425   5.43721
H    -1.26640   3.34012   5.32989
H    -0.30544   4.56663   4.48027
C    -0.26388   1.14410   4.05512
H     0.52983   1.00057   4.78485
H    -0.10415   0.43532   3.24091
H    -1.21713   0.91661   4.52946
C     1.07359   2.89654   2.83328
H     1.90547   2.76759   3.52208
H     1.08049   3.92160   2.46652
H     1.22967   2.22684   1.98602
N    -1.81460   0.42215  -1.02059
C    -2.58751   1.40465  -0.72295
H    -3.39786   1.66494  -1.41490
C    -1.97957  -0.23367  -2.25139
C    -2.28690  -1.59402  -2.27312
H    -2.44273  -2.11191  -1.33581
C    -2.40088  -2.24860  -3.48582
H    -2.64464  -3.30054  -3.50266
C    -2.20670  -1.56308  -4.67562
H    -2.29027  -2.08190  -5.61869
C    -1.90725  -0.21095  -4.65277
H    -1.75600   0.32629  -5.57693
C    -1.80230   0.46072  -3.44735
H    -1.54360   1.51008  -3.41362
O     0.57907  -1.31502  -1.46328
C     1.37954  -0.97657  -2.60549
H     2.36311  -0.61882  -2.26483
H     0.87350  -0.18066  -3.15700
C     1.50933  -2.27587  -3.38562
H     2.33108  -2.25309  -4.09645
H     0.57883  -2.48675  -3.91530
C     1.72354  -3.26956  -2.24897
H     1.44091  -4.28598  -2.51190
H     2.76888  -3.26473  -1.93998
C     0.83578  -2.70108  -1.13854
H     1.32022  -2.75564  -0.15526
H    -0.13322  -3.20930  -1.08950
Cl    1.96083  -0.42711   0.93125
Cl   -1.15397  -1.71766   0.96701
O     0.54812   1.22929  -0.95442
