54

Ni    0.00000   0.00000   0.00000
Br    1.03405   0.81933   1.77785
P    -0.38342   2.93147  -0.86592
N     0.16605   1.49213  -1.28266
N     1.59232  -0.76546  -1.45875
C     2.23944  -1.93441  -1.44674
C     2.92110  -2.39117  -2.56949
H     3.42920  -3.34199  -2.53586
C     2.93999  -1.61553  -3.71499
H     3.45687  -1.95358  -4.60068
C     2.30293  -0.38765  -3.70075
H     2.31572   0.26243  -4.56211
C     1.64175   0.00413  -2.54408
C     2.21411  -2.71274  -0.17668
H     2.12808  -2.03236   0.67152
H     3.11142  -3.31679  -0.07289
H     1.34709  -3.37382  -0.15830
C     0.99560   1.36440  -2.46630
H     1.80994   2.10933  -2.48146
H     0.39589   1.52670  -3.37739
C    -1.32640   3.67465  -2.23962
C    -2.70655   3.53660  -2.31599
H    -3.24675   3.07901  -1.49822
C    -3.38477   4.00106  -3.42904
H    -4.45871   3.90169  -3.48347
C    -2.68807   4.58984  -4.47180
H    -3.21945   4.94802  -5.34073
C    -1.30995   4.72015  -4.40240
H    -0.76686   5.17787  -5.21606
C    -0.62858   4.26184  -3.29007
H     0.44683   4.36971  -3.22220
C    -1.49403   2.66443   0.52704
C    -2.29384   1.51917   0.52482
H    -2.33144   0.87807  -0.35630
C    -3.08222   1.23206   1.62629
H    -3.68315   0.33497   1.63711
C    -3.07311   2.08195   2.72167
H    -3.67091   1.84285   3.58782
C    -2.29527   3.22795   2.71289
H    -2.28832   3.88451   3.56946
C    -1.50183   3.52319   1.61782
H    -0.86722   4.39809   1.61859
C     0.85554   4.19287  -0.43182
C     0.55176   5.54958  -0.49338
H    -0.43420   5.86614  -0.80738
C     1.51336   6.48080  -0.15054
H     1.28001   7.53467  -0.19271
C     2.77441   6.06305   0.24880
H     3.52163   6.79559   0.51548
C     3.07639   4.71299   0.31003
H     4.05508   4.38767   0.62751
C     2.11788   3.77438  -0.02934
H     2.33754   2.71833   0.03727
O    -0.72216  -1.30023   0.71442
