36

Fe    0.00000   0.00000   0.00000
C    -1.23942   1.24073  -0.46528
C    -2.24386  -0.85222  -1.54891
C    -3.08760  -1.68121  -2.27892
H    -4.00106  -1.27553  -2.68288
C    -2.72440  -2.99831  -2.47165
H    -3.35489  -3.66761  -3.03543
C    -1.51926  -3.43194  -1.93220
H    -1.17844  -4.44522  -2.06723
C    -0.74670  -2.53864  -1.22089
H     0.20281  -2.84351  -0.80816
C     0.34219   2.67053   0.95542
C     0.90927   3.76539   1.59721
H     0.39124   4.71059   1.57856
C     2.12423   3.60963   2.23243
H     2.59247   4.43905   2.73852
C     2.73187   2.36057   2.18855
H     3.68904   2.18742   2.65222
C     2.09488   1.33153   1.52817
H     2.55430   0.35723   1.46103
N    -1.09253  -1.26824  -1.00650
N     0.90972   1.45809   0.92918
S    -2.67895   0.82758  -1.31048
S    -1.19110   2.85380   0.12888
S    -1.14164  -0.53358   1.93646
N     1.01947  -1.44881   0.98975
C     0.20263  -1.59183   2.04772
C     0.47035  -2.50183   3.07331
H    -0.21438  -2.58031   3.90208
C     1.61096  -3.26805   2.98064
H     1.85182  -3.98205   3.75417
C     2.45390  -3.11487   1.87941
H     3.35272  -3.70102   1.78064
C     2.11775  -2.19301   0.90883
H     2.73630  -2.03420   0.03511
O     1.06833   0.10502  -1.25306
