37

Hg    0.00000   0.00000   0.00000
N    -0.76368   2.54521  -0.11695
N     2.52493  -0.10029  -0.84226
C    -1.38894   0.94065  -2.66906
C    -0.41921   0.06856  -2.16844
C     0.45177  -0.54736  -3.07042
C     0.34174  -0.30507  -4.43467
C    -0.62969   0.54977  -4.91864
C    -1.48927   1.17433  -4.03557
C    -2.32925   1.67642  -1.73724
C    -1.60341   2.83313  -1.10972
C    -1.78077   4.13744  -1.55916
C    -1.07966   5.16185  -0.94755
C    -0.22051   4.85370   0.09562
C    -0.09414   3.52671   0.46988
C     1.55538  -1.46321  -2.58386
C     2.68955  -0.63322  -2.05157
C     3.84392  -0.41148  -2.79515
C     4.85240   0.36828  -2.25671
C     4.67827   0.90500  -0.99068
C     3.49181   0.64453  -0.32624
H     1.01927  -0.79196  -5.12211
H    -0.71420   0.73144  -5.97998
H    -2.24768   1.84746  -4.41021
H    -2.66383   1.00104  -0.94387
H    -3.19813   2.03646  -2.28857
H    -2.46157   4.34272  -2.37114
H    -1.20502   6.18368  -1.27529
H     0.33667   5.62199   0.60759
H     0.55644   3.22821   1.28077
H     1.90646  -2.09494  -3.40007
H     1.17745  -2.09859  -1.77697
H     3.94849  -0.84891  -3.77629
H     5.76075   0.54986  -2.81278
H     5.44287   1.50917  -0.52895
H     3.30360   1.03241   0.66573
O     0.40126   0.06142   1.59929
