64

Pt    0.00000   0.00000   0.00000
Cl    0.63433   0.47083  -2.13269
P    -2.03656  -0.94417  -0.43679
P    -0.92368  -0.46391   2.03663
O    -5.85730  -1.93344   3.39429
N    -2.37119  -1.04005   1.26469
N    -3.64906  -1.38115   1.72413
C    -4.31726  -0.31609   2.45619
H    -4.26353   0.59940   1.86307
H    -3.84055  -0.14359   3.43209
C    -5.77514  -0.71971   2.68720
H    -6.28319   0.02826   3.29742
H    -6.29136  -0.81148   1.72041
C    -5.19837  -2.96128   2.69801
H    -5.68507  -3.12905   1.72498
H    -5.29468  -3.85965   3.30933
C    -3.72154  -2.62839   2.46624
H    -3.20347  -2.55366   3.43585
H    -3.26336  -3.41715   1.86658
C    -1.39684   0.96988   3.04357
C    -1.72351   0.92450   4.39556
H    -1.69301  -0.01443   4.93229
C    -2.08645   2.08772   5.04962
H    -2.33754   2.05548   6.09965
C    -2.12500   3.29233   4.36393
H    -2.40378   4.19641   4.88426
C    -1.79825   3.34029   3.01800
H    -1.81858   4.28038   2.48790
C    -1.43285   2.18114   2.35934
H    -1.14798   2.19751   1.30926
C    -0.28232  -1.70788   3.18337
C     0.57297  -1.28185   4.19902
H     0.75064  -0.22468   4.33809
C     1.20459  -2.21055   5.00456
H     1.86200  -1.87701   5.79346
C     1.00636  -3.56589   4.79245
H     1.49965  -4.28908   5.42432
C     0.19589  -3.99336   3.75272
H     0.06394  -5.04921   3.56735
C    -0.43478  -3.07000   2.94015
H    -1.03943  -3.40082   2.10779
C    -3.45279  -0.14203  -1.22954
C    -4.78141  -0.46992  -0.97623
H    -5.01310  -1.23540  -0.25152
C    -5.78898   0.20265  -1.64388
H    -6.82231  -0.04577  -1.44784
C    -5.47842   1.18785  -2.56872
H    -6.27153   1.70381  -3.08946
C    -4.15572   1.51069  -2.82554
H    -3.91530   2.27770  -3.54606
C    -3.14125   0.85080  -2.15518
H    -2.10128   1.08894  -2.34077
C    -2.07056  -2.69096  -0.93470
C    -3.13923  -3.33779  -1.54132
H    -4.03393  -2.78899  -1.79500
C    -3.04327  -4.68841  -1.83196
H    -3.87364  -5.19492  -2.30171
C    -1.88751  -5.38998  -1.52983
H    -1.82103  -6.44253  -1.76174
C    -0.80883  -4.74011  -0.94831
H     0.10046  -5.28159  -0.73410
C    -0.89879  -3.39280  -0.65779
H    -0.05510  -2.85478  -0.22997
O     1.41085   0.60100   0.60892
