38

Mn    0.00000   0.00000   0.00000
F    -0.47040   0.66334  -1.58132
F     0.66366  -1.52572  -0.58365
N     0.58358  -0.82294   1.96854
N     1.79840   0.71482   0.03168
N    -1.66149  -0.92129   0.37544
C    -2.58504  -1.30268  -0.50620
H    -2.43427  -0.94138  -1.51386
C    -3.66285  -2.10033  -0.16946
H    -4.38342  -2.37888  -0.92149
C    -3.79444  -2.53099   1.14199
H    -4.61891  -3.15763   1.44465
C    -2.83117  -2.13701   2.06199
H    -2.89580  -2.45167   3.09288
C    -1.78244  -1.33288   1.65295
C    -0.72868  -0.84541   2.62740
H    -0.73195  -1.46632   3.53096
H    -0.99900   0.17495   2.91646
C     1.21161  -2.15168   1.97646
H     0.51959  -2.84233   1.48825
H     2.10563  -2.09128   1.35088
C     1.59695  -2.71815   3.34463
H     2.07236  -3.68300   3.18947
H     0.73132  -2.87530   3.98340
H     2.30410  -2.08118   3.87027
C     1.52476   0.21703   2.40358
H     0.95899   1.09724   2.72427
H     2.14971  -0.10950   3.24335
C     2.39601   0.63969   1.23734
C     3.73098   0.95902   1.40878
H     4.17949   0.88427   2.38836
C     4.48360   1.37568   0.31818
H     5.52600   1.62840   0.43497
C     3.85934   1.45271  -0.91757
H     4.39984   1.77014  -1.79489
C     2.52289   1.11247  -1.01372
H     1.98877   1.15326  -1.95277
O    -0.51217   1.27540   0.91299
