45

Os    0.00000   0.00000   0.00000
Cl    0.96465   0.07246   2.07857
N     1.82154  -0.55438  -0.84534
N     2.25583   0.07333  -1.94760
N     0.64327   1.93335  -0.31544
N     1.20819   2.25767  -1.48244
N    -0.68404  -0.00038  -1.94380
N     0.03957   0.59472  -2.89619
N    -1.70937   0.40990   0.74725
H    -1.92410  -0.17592   1.56149
C     2.72051  -1.47276  -0.51525
H     2.57618  -2.10099   0.34252
C     3.77124  -1.44195  -1.42748
H     4.64677  -2.05684  -1.43396
C     3.43255  -0.44368  -2.31988
H     3.95133  -0.07776  -3.18277
C     0.62396   3.01691   0.45065
H     0.21500   2.98307   1.44222
C     1.19375   4.08178  -0.24299
H     1.32631   5.08644   0.10002
C     1.55305   3.55201  -1.46589
H     2.02678   4.01043  -2.30984
C    -1.79184  -0.47270  -2.50045
H    -2.52143  -1.00126  -1.91759
C    -1.78886  -0.17248  -3.86051
H    -2.53863  -0.41757  -4.58318
C    -0.60443   0.50426  -4.06761
H    -0.18715   0.91745  -4.96315
C    -2.78270   1.14916   0.39093
C    -2.69248   2.10882  -0.63910
H    -1.74073   2.26785  -1.11966
C    -3.78710   2.84764  -1.02355
H    -3.69220   3.57615  -1.81481
C    -5.00961   2.65935  -0.39392
H    -5.87147   3.23527  -0.69389
C    -5.11837   1.72813   0.62767
H    -6.07234   1.58752   1.11545
C    -4.03780   0.97057   1.03889
C    -4.19108  -0.03604   2.13761
H    -5.21805  -0.05160   2.49315
H    -3.54335   0.20502   2.98144
H    -3.93529  -1.03680   1.78813
B     1.41758   1.19684  -2.57614
H     1.93188   1.65200  -3.53518
O    -0.39132  -1.59893   0.11314
