32

Re    0.00000   0.00000   0.00000
O     0.88231  -2.95475  -0.26736
O    -1.67075  -0.10738  -2.60359
O     2.49879   1.18456  -1.37250
O     0.28786   4.20450  -0.68682
N     0.82391   0.26885   1.97562
N    -0.71870   1.91570   0.60160
C     0.58682  -1.85039  -0.22442
C    -1.00898  -0.08539  -1.66927
C     1.57642   0.72958  -0.86483
C     1.56176  -0.59299   2.66796
H     1.88177  -1.48468   2.14422
C     1.91165  -0.39165   3.99091
H     2.50603  -1.12901   4.50539
C     1.48200   0.76172   4.63608
H     1.73545   0.94406   5.66879
C     0.71729   1.66558   3.92671
H     0.35136   2.57311   4.38084
C     0.40111   1.38942   2.59640
C    -0.42776   2.26212   1.79890
H    -0.80766   3.17798   2.24504
C    -1.54905   2.78820  -0.18376
H    -1.97453   3.58654   0.43596
H    -2.35605   2.20205  -0.63378
C    -0.71227   3.42333  -1.29715
H    -0.25829   2.63837  -1.92351
H    -1.35932   4.04620  -1.93277
C     1.20088   4.74667  -1.60826
H     0.69443   5.39897  -2.32935
H     1.72744   3.95515  -2.15378
H     1.91496   5.32854  -1.02975
O    -1.32182  -0.55626   0.81600
