39

Re    0.00000   0.00000   0.00000
O     1.82912   3.49692   0.16401
O     2.72057   0.72770  -1.26236
O     1.22069  -1.28511   2.53815
O    -0.19466  -2.75746  -1.39220
N    -1.13228   1.04150  -1.51312
N    -0.28746   1.93973   0.81939
C    -1.57582   0.55960  -2.67015
H    -1.22967  -0.42820  -2.94634
C    -2.43949   1.25692  -3.49480
H    -2.77213   0.81344  -4.41913
C    -2.87032   2.52090  -3.10920
H    -3.54980   3.08560  -3.72856
C    -2.41367   3.03391  -1.91240
H    -2.72238   4.00641  -1.56170
C    -1.54550   2.26863  -1.13333
C    -1.03882   2.72116   0.13953
H    -1.31685   3.71149   0.49366
C     0.21544   2.39110   2.09014
H    -0.23222   1.76499   2.87118
H    -0.07251   3.43759   2.26821
C     1.71795   2.25196   2.15486
C     2.33043   1.57371   3.19383
H     1.72176   1.13402   3.96975
C     3.70852   1.45347   3.24836
H     4.17165   0.91894   4.06245
C     4.48017   2.01488   2.24977
H     5.55520   1.92105   2.27591
C     3.88804   2.70410   1.20499
H     4.51149   3.13272   0.43720
C     2.50684   2.83101   1.14887
C     2.56712   4.06651  -0.89056
H     3.25012   4.84162  -0.52933
H     1.83064   4.51855  -1.55433
H     3.13022   3.30646  -1.43975
C     1.71176   0.45000  -0.79027
C     0.82347  -0.80570   1.57841
C    -0.06107  -1.74520  -0.87445
O    -1.48366  -0.31023   0.65192
