39

Re    0.00000   0.00000   0.00000
O     2.80297   0.22497  -1.27405
O     0.74279  -2.36957   1.84810
O     0.54374   2.08551   2.22248
N    -0.86112   1.41736  -1.38542
N    -0.78789  -1.21651  -1.55633
N     0.17533  -2.72086  -4.34477
C    -0.92144   2.73917  -1.25971
H    -0.37829   3.17085  -0.42878
C    -1.63770   3.54551  -2.12551
H    -1.65782   4.61192  -1.97056
C    -2.32680   2.96023  -3.18110
H    -2.89783   3.56352  -3.86960
C    -2.26945   1.58877  -3.32389
H    -2.79136   1.08189  -4.12045
C    -1.53049   0.84179  -2.40627
C    -1.45189  -0.59866  -2.46064
H    -1.97356  -1.12706  -3.25410
C    -0.72765  -2.65188  -1.61633
H    -1.41728  -3.03178  -2.37829
H    -1.01440  -3.04827  -0.63639
C     0.69366  -3.12123  -1.95051
H     0.69707  -4.21085  -1.96522
H     1.38560  -2.79019  -1.17224
C     1.16645  -2.55356  -3.29167
H     1.34158  -1.48078  -3.17000
H     2.13131  -3.01654  -3.55978
C     0.42809  -1.82486  -5.45522
H     1.39380  -2.01546  -5.94705
H     0.41949  -0.79441  -5.09928
H    -0.36393  -1.94362  -6.19393
C     0.09698  -4.09435  -4.80328
H    -0.68094  -4.17147  -5.56164
H    -0.16797  -4.74525  -3.97316
H     1.04509  -4.44701  -5.23715
C     1.76477   0.14076  -0.79076
C     0.51951  -1.47456   1.17033
C     0.41008   1.29861   1.40332
O    -1.53403  -0.07464   0.60307
