38

Cd    0.00000   0.00000   0.00000
Cl   -2.03739   0.22960   1.15779
N    -0.77427  -0.08327  -2.26242
C    -1.27224   0.99893  -2.84890
C    -1.57778   2.16505  -1.97834
H    -2.16700   1.84314  -1.11679
H    -2.11123   2.93957  -2.52240
H    -0.64259   2.57747  -1.58867
C    -1.48826   1.02892  -4.22996
H    -1.89640   1.91407  -4.69207
C    -1.16415  -0.07901  -4.98787
H    -1.30799  -0.07426  -6.05831
C    -0.65015  -1.20312  -4.35868
H    -0.37341  -2.07083  -4.93513
C    -0.47614  -1.16854  -2.97791
C     0.05002  -2.32433  -2.22143
N     0.57609  -2.05655  -1.03225
C     1.07082  -3.02093  -0.26546
C     1.04383  -4.35418  -0.67924
H     1.41751  -5.14162  -0.04557
C     0.48999  -4.65308  -1.91227
H     0.44110  -5.67723  -2.25150
C    -0.01157  -3.63343  -2.70294
H    -0.46488  -3.85577  -3.65497
C     1.62167  -2.59956   1.03994
N     1.20327  -1.42087   1.50285
C     1.62474  -0.96571   2.67686
C     1.10985   0.35753   3.11837
H     1.49279   1.13410   2.45000
H     1.41050   0.58211   4.13798
H     0.02057   0.37883   3.03943
C     2.52088  -1.70793   3.45208
H     2.85070  -1.32784   4.40621
C     2.98128  -2.91987   2.97643
H     3.68604  -3.50382   3.54990
C     2.52816  -3.38219   1.74983
H     2.89105  -4.31616   1.35268
O     1.05129   1.26722  -0.10692
