65

Ni    0.00000   0.00000   0.00000
P    -0.35570  -1.86418  -0.99800
C    -0.66936   2.14116  -0.44003
C    -0.02947   1.87965   0.85032
C    -0.88467   1.01519   1.57746
C    -1.85998   0.51093   0.69814
C    -1.81364   1.29002  -0.52954
C    -2.64504   1.33912  -1.64287
C    -2.33858   2.23497  -2.65262
C    -1.22278   3.06350  -2.56871
C    -0.37769   3.02599  -1.47264
C     1.08268   2.71380   1.39616
C     0.55811   3.99980   2.06400
C     1.66762   4.42664   3.04117
C     2.67573   3.26493   3.07993
C     1.91732   2.07263   2.50534
C     0.22780  -3.38937  -0.20126
C     1.16575  -3.28268   0.81946
C     1.64777  -4.42121   1.44008
C     1.19141  -5.66863   1.04759
C     0.24773  -5.77805   0.03784
C    -0.23792  -4.64393  -0.58649
C     0.42912  -1.86072  -2.64169
C     0.97348  -2.98595  -3.24477
C     1.53179  -2.88397  -4.50766
C     1.54852  -1.66798  -5.16967
C     1.01371  -0.54074  -4.56569
C     0.46004  -0.63568  -3.30407
C    -2.08775  -2.27628  -1.39522
C    -2.89689  -2.75547  -0.36741
C    -4.23712  -3.00249  -0.59207
C    -4.78585  -2.75911  -1.84217
C    -3.98895  -2.26973  -2.86325
C    -2.64454  -2.02332  -2.64283
H    -0.79411   0.76390   2.62334
H    -2.69655  -0.11389   0.97857
H    -3.51118   0.69564  -1.71177
H    -2.97838   2.29639  -3.52097
H    -1.01569   3.75244  -3.37455
H     0.48769   3.67039  -1.42212
H     1.75616   2.98560   0.57678
H     0.33113   4.77081   1.32856
H    -0.36327   3.77517   2.60515
H     2.14908   5.34744   2.71284
H     1.25015   4.61019   4.03138
H     3.53301   3.49043   2.44441
H     3.04440   3.07493   4.08714
H     1.26676   1.64195   3.26816
H     2.57230   1.29313   2.11918
H     1.51239  -2.29840   1.11263
H     2.37818  -4.33567   2.23065
H     1.56654  -6.55874   1.53087
H    -0.11144  -6.75159  -0.26311
H    -0.98444  -4.72754  -1.36485
H     0.97595  -3.93373  -2.72681
H     1.96093  -3.75865  -4.97431
H     1.98899  -1.59567  -6.15316
H     1.03766   0.41165  -5.07416
H     0.06017   0.24431  -2.80818
H    -2.46064  -2.93624   0.60698
H    -4.85854  -3.37979   0.20718
H    -5.83492  -2.94686  -2.01702
H    -4.41645  -2.07430  -3.83597
H    -2.02553  -1.63522  -3.43921
O     1.62051  -0.06389  -0.30394
