59

C    -0.73520  -1.72279  -0.64507
C    -2.10569  -3.21140  -1.56963
H    -2.84429  -3.58176  -2.25047
C    -1.43887  -3.82847  -0.56739
H    -1.50636  -4.83120  -0.19894
C    -2.15075  -0.86867  -2.46251
H    -2.72218  -1.32570  -3.27532
H    -1.29830  -0.32662  -2.89587
C    -3.02532   0.10012  -1.66110
H    -3.78691  -0.46000  -1.10977
H    -3.51732   0.79407  -2.34705
C    -1.44038   2.42104  -1.54186
C    -0.22914   2.27556  -2.21938
H     0.40000   1.38927  -2.05512
C     0.21147   3.26986  -3.07213
H     1.15403   3.15711  -3.58651
C    -0.54633   4.41686  -3.24711
H    -0.19540   5.19940  -3.90304
C    -1.74289   4.56928  -2.56707
H    -2.32494   5.47072  -2.69075
C    -2.19385   3.57548  -1.71630
H    -3.11833   3.70661  -1.17185
C    -3.20332   1.75961   0.67222
C    -4.50973   2.02907   0.26882
H    -4.82572   1.82873  -0.74464
C    -5.41400   2.56241   1.16853
H    -6.42403   2.77381   0.84814
C    -5.02979   2.82777   2.47317
H    -5.74140   3.24637   3.16912
C    -3.73499   2.55521   2.88048
H    -3.42976   2.76006   3.89527
C    -2.82577   2.02028   1.98608
H    -1.81169   1.81890   2.30263
C     0.31644  -3.17007   1.04937
C     1.37733  -4.04667   0.80162
C     2.26209  -4.31678   1.83091
H     3.09332  -4.98038   1.64472
C     2.12657  -3.73018   3.08196
C     1.07663  -2.85182   3.29323
H     0.97226  -2.36766   4.25330
C     0.16093  -2.55482   2.29240
C    -0.92718  -1.55587   2.56830
H    -1.82635  -1.74428   1.97550
H    -0.54752  -0.53810   2.34891
H    -1.19685  -1.57347   3.62214
C     3.12261  -4.00538   4.16418
H     3.94776  -3.29773   4.08495
H     3.53020  -5.00926   4.07225
H     2.67300  -3.89070   5.14757
C     1.60613  -4.61287  -0.56622
H     1.71800  -3.79655  -1.27964
H     0.78262  -5.24607  -0.89321
H     2.51890  -5.20082  -0.57924
N    -0.60111  -2.89811  -0.00761
N    -1.65443  -1.91677  -1.60814
P    -1.96249   1.05232  -0.45301
Br    2.26126  -0.80541  -0.30623
Pd    0.00000   0.00000   0.00000
O     0.48102   1.37606   0.77303
