21

Cl   -0.57630   1.38534   1.62986
C    -0.12629  -4.12855   1.29393
C    -0.32766  -2.92571   0.37280
C     0.89895  -2.65228  -0.54020
C     2.16399  -2.27794   0.23356
H    -1.64217  -1.66953   1.38735
H     2.99817  -2.17600  -0.45769
H     2.42325  -3.04072   0.96148
H     2.02423  -1.30925   0.74202
H    -0.11647  -1.64817   1.99402
H     1.36044  -1.17174  -1.92824
H    -0.18366  -1.74917  -2.07348
H     0.65014  -3.92921   2.02856
H     0.15559  -5.00881   0.72280
H    -1.04952  -4.34948   1.82514
H    -1.17463  -3.13413  -0.29558
H     1.09299  -3.56448  -1.12827
N    -0.65840  -1.71198   1.13037
N     0.55441  -1.52108  -1.40908
Pd    0.00000   0.00000   0.00000
O     0.62781   1.18980  -0.95536
