34

Hg    0.00000   0.00000   0.00000
Cl    1.24733   0.66770   1.81362
N    -1.41938  -1.58736   1.21828
N    -0.83986  -2.57515   1.92506
N     1.10515  -2.15988  -0.34097
N     1.11882  -3.05271   0.66626
C     0.59624  -2.68898   1.95808
H     0.88056  -3.44513   2.69033
H     1.01430  -1.70782   2.23351
C     1.62599  -2.75905  -1.40129
C     1.98828  -4.07280  -1.06462
H     2.43867  -4.80103  -1.70703
C     1.64855  -4.23052   0.26082
C     1.77992  -2.07122  -2.70600
H     1.39373  -2.69478  -3.50930
H     2.83261  -1.87344  -2.90352
H     1.23996  -1.12598  -2.69566
C     1.80927  -5.41023   1.14777
H     0.84072  -5.79916   1.46121
H     2.38741  -5.15778   2.03598
H     2.33211  -6.19446   0.60813
C    -2.72982  -1.73038   1.34950
C    -2.99912  -2.83785   2.16882
H    -3.96175  -3.20141   2.46385
C    -1.77183  -3.35639   2.51885
C    -3.69687  -0.81014   0.70353
H    -3.18215  -0.16885  -0.01000
H    -4.17870  -0.18533   1.45460
H    -4.46820  -1.37607   0.18534
C    -1.44333  -4.51386   3.38889
H    -2.36279  -4.93573   3.78415
H    -0.81706  -4.20663   4.22583
H    -0.92175  -5.29187   2.83235
O    -0.72571   0.55059  -1.37576
