31

Re    0.00000   0.00000   0.00000
C     0.52524  -0.42696   1.81832
C    -1.03105  -1.64830  -0.20572
C    -1.60287   0.96519   0.56196
C     2.08786  -2.01764  -1.21633
H     1.34627  -2.76169  -0.95514
C     2.73253   0.18749  -1.15130
C     2.37789   1.52362  -0.73699
H     3.05704   2.34137  -0.97000
C     0.90616   3.04914   0.25855
H    -0.07269   3.27802  -0.17766
H     1.63885   3.77391  -0.12112
C     3.22928  -2.37638  -1.90999
H     3.38130  -3.40465  -2.19489
C     4.15997  -1.39652  -2.23468
H     5.05605  -1.64523  -2.78165
C     3.90841  -0.09653  -1.84613
H     4.59397   0.70373  -2.07788
C     0.81077   3.16704   1.78510
H     0.43596   4.16343   2.02249
H     0.09096   2.43384   2.15790
C     2.16046   2.94721   2.45651
H     2.89410   3.66623   2.09619
H     2.53110   1.94283   2.25917
H     2.06634   3.06472   3.53250
N     1.83167  -0.76839  -0.84140
N     1.26126   1.71319  -0.13753
O    -2.53307   1.58284   0.81234
O    -1.60800  -2.60883  -0.43347
O     0.85341  -0.67098   2.89027
O    -0.36300   0.35697  -1.56949
