46

Ag    0.00000   0.00000   0.00000
N     0.31074   2.96940  -1.04783
N     2.15453   2.31673  -0.17468
C     0.91936   1.89342  -0.51025
C     1.14667   4.05011  -1.04240
H     0.85408   5.00794  -1.42016
C     2.31340   3.63694  -0.49376
H     3.21958   4.17696  -0.31566
C     3.16238   1.48091   0.43613
H     2.71654   0.47831   0.52048
C     4.41657   1.38972  -0.43423
H     4.86496   2.38022  -0.54072
H     4.14574   1.03098  -1.42975
C     5.42448   0.44374   0.21222
H     4.99468  -0.55851   0.26804
H     6.32300   0.38884  -0.40461
C     5.78188   0.92178   1.61662
H     6.48717   0.22712   2.07494
H     6.26735   1.89888   1.55586
C     4.52823   1.03002   2.47983
H     4.78918   1.39231   3.47544
H     4.07642   0.04216   2.59097
C     3.51729   1.97635   1.83914
H     2.61079   2.02846   2.44656
H     3.94343   2.98060   1.77820
C    -1.05411   3.00336  -1.51720
H    -1.36513   1.97027  -1.71275
H    -1.09406   3.57272  -2.44998
C    -1.95886   3.62307  -0.48092
C    -2.42081   4.90521  -0.61519
H    -2.16725   5.49076  -1.48885
C    -3.24693   5.48837   0.36775
C    -3.74304   6.80275   0.24420
H    -3.47998   7.37775  -0.63243
C    -4.54393   7.33908   1.21314
H    -4.92203   8.34574   1.11164
C    -4.88417   6.58735   2.34875
H    -5.51921   7.02742   3.10336
C    -4.41837   5.31083   2.49754
H    -4.67890   4.72725   3.36864
C    -3.59096   4.72807   1.51582
C    -3.09787   3.41061   1.63259
H    -3.36444   2.82893   2.50252
C    -2.30570   2.87436   0.66006
H    -1.93882   1.85432   0.75083
O    -0.76618  -1.38182   0.47543
