46

Ag    0.00000   0.00000   0.00000
N     0.73447  -3.05229   0.23635
N     1.61447  -1.95846   1.85415
C     0.78808  -1.82678   0.79645
C     1.51983  -3.93310   0.92433
H     1.62291  -4.95961   0.63886
C     2.07360  -3.24258   1.94902
H     2.74241  -3.57003   2.71715
C     1.96285  -0.88019   2.75090
H     1.38326  -0.00698   2.41237
C     1.57468  -1.20287   4.19433
H     2.13149  -2.07639   4.54122
H     0.50925  -1.43752   4.24228
C     1.89408  -0.01002   5.09097
H     1.29545   0.84721   4.77684
H     1.62752  -0.24536   6.12270
C     3.37554   0.34485   5.00178
H     3.58594   1.21125   5.63041
H     3.97305  -0.49075   5.37439
C     3.76812   0.64648   3.55837
H     4.83304   0.87728   3.50090
H     3.21627   1.51994   3.20558
C     3.45213  -0.54371   2.65753
H     3.70608  -0.31113   1.62097
H     4.04561  -1.40680   2.96864
C     0.00246  -3.38493  -0.96293
H    -0.77199  -2.62042  -1.10103
H    -0.47121  -4.36153  -0.83023
C     0.92497  -3.40108  -2.15684
C     1.34593  -4.57736  -2.71743
H     0.99596  -5.52551  -2.33155
C     2.23104  -4.58471  -3.81560
C     2.66920  -5.78327  -4.41586
H     2.31211  -6.72383  -4.02067
C     3.52712  -5.75697  -5.47955
H     3.85725  -6.67849  -5.93611
C     3.98656  -4.53290  -5.99023
H     4.66383  -4.53164  -6.83149
C     3.58016  -3.35426  -5.42957
H     3.92971  -2.40930  -5.81967
C     2.69465  -3.34689  -4.33244
C     2.24791  -2.14878  -3.73384
H     2.59485  -1.20670  -4.13166
C     1.38567  -2.17597  -2.67708
H     1.03434  -1.24895  -2.22589
O    -0.52287   1.40838  -0.68233
