28

Pd    0.00000   0.00000   0.00000
Br    1.14167  -2.08721   0.27689
N    -0.93352   2.91285  -0.56571
N    -2.38361   1.64076   0.38500
N    -2.85200  -0.62091  -0.06576
N    -1.93013  -1.90291  -1.52564
C    -1.11988   1.66852  -0.10667
C    -2.05847   3.66687  -0.35704
C    -2.97797   2.86841   0.23313
C     0.27128   3.39205  -1.18982
C    -2.97347   0.43377   0.91098
C    -1.66156  -0.94564  -0.62831
C    -3.26992  -2.19035  -1.52303
C    -3.85666  -1.37981  -0.61194
C    -0.95624  -2.53778  -2.37370
H    -2.11709   4.69686  -0.64265
H    -3.97701   3.07039   0.55980
H     0.89164   3.92174  -0.46417
H     0.02162   4.05746  -2.01574
H     0.84214   2.53603  -1.56097
H    -2.43696   0.13899   1.83247
H    -4.02820   0.60636   1.14174
H    -3.69550  -2.93664  -2.16166
H    -4.87868  -1.29049  -0.30681
H    -0.64594  -3.49405  -1.94833
H    -0.07349  -1.89556  -2.44077
H    -1.37599  -2.69558  -3.36670
O     1.26214   0.84598   0.64329
