34

Hg    0.00000   0.00000   0.00000
Br   -0.32315   0.52337   2.34959
N     2.79739   0.13314  -1.86800
N     2.28047  -0.91442   0.17393
N     3.80137  -1.40979  -3.28892
N     1.64087   1.76813  -0.65299
C     3.19175  -0.65007  -0.75992
C     4.50292  -1.11113  -0.67215
H     5.20846  -0.86743  -1.44715
C     4.86308  -1.88278   0.41659
H     5.87111  -2.25812   0.50777
C     3.91595  -2.14776   1.39484
H     4.15628  -2.73476   2.26627
C     2.64415  -1.63410   1.23373
H     1.87865  -1.80079   1.98080
C     2.95510  -0.39953  -3.15641
C     2.18142   0.07904  -4.21730
H     1.46414   0.86859  -4.06749
C     2.32410  -0.52645  -5.44924
H     1.73003  -0.19094  -6.28553
C     3.21957  -1.57892  -5.59292
H     3.35209  -2.07592  -6.54004
C     3.92474  -1.98300  -4.47484
H     4.62873  -2.80365  -4.51274
C     2.43805   1.46629  -1.68005
C     2.96324   2.45580  -2.51918
H     3.61445   2.17778  -3.33279
C     2.64864   3.77475  -2.27327
H     3.04199   4.55466  -2.90778
C     1.84213   4.08561  -1.18431
H     1.58646   5.10532  -0.94899
C     1.37073   3.04899  -0.40603
H     0.74861   3.23587   0.45995
O    -0.52523  -0.30209  -1.53472
