45

Re    0.00000   0.00000   0.00000
P    -1.86211  -1.48815   0.58535
P     0.77895  -0.97384  -2.12069
Cl   -0.58250   1.28666   1.85639
Cl    1.40456   1.71220  -0.72401
O     1.10159  -0.99369   0.75501
C    -2.80074  -2.18828  -0.81158
H    -2.18429  -2.88307  -1.37692
H    -3.09800  -1.36202  -1.45601
H    -3.68899  -2.69182  -0.43277
C    -3.15386  -0.66592   1.56669
H    -2.70828  -0.26557   2.47599
H    -3.93648  -1.38536   1.80767
H    -3.56050   0.15885   0.98218
C    -1.35546  -2.87442   1.63640
C    -0.52870  -2.55608   2.71137
H    -0.22270  -1.52644   2.85137
C    -0.08909  -3.55003   3.56436
H     0.55275  -3.30264   4.39624
C    -0.46639  -4.86626   3.34450
H    -0.11961  -5.64532   4.00717
C    -1.28109  -5.18519   2.27128
H    -1.56972  -6.21193   2.09808
C    -1.72700  -4.19360   1.41372
H    -2.35557  -4.45215   0.57486
C     0.30938  -0.09253  -3.63540
H    -0.76878  -0.14131  -3.77760
H     0.83464  -0.51294  -4.49231
H     0.59955   0.94991  -3.49788
C     2.59897  -1.01628  -2.18323
H     2.96679  -1.53070  -1.29620
H     2.96535   0.00954  -2.17571
H     2.92420  -1.53679  -3.08418
C     0.34246  -2.72253  -2.32788
C     0.56341  -3.53854  -1.21960
H     0.95832  -3.09299  -0.31394
C     0.26145  -4.88531  -1.27667
H     0.43822  -5.51401  -0.41708
C    -0.27863  -5.42222  -2.43640
H    -0.52068  -6.47347  -2.48311
C    -0.51448  -4.61074  -3.53362
H    -0.94169  -5.02942  -4.43297
C    -0.20539  -3.26109  -3.48461
H    -0.39435  -2.63439  -4.34308
O    -1.22314   0.68797  -0.86782
