34

Pd    0.00000   0.00000   0.00000
N     2.74793   2.95345   0.98767
N    -1.09181  -1.65612   0.02921
N     1.01686   1.70674  -0.04135
C    -0.60319  -2.87576  -0.17424
H     0.46896  -2.94925  -0.32536
C     1.94808   1.89183   0.92214
C     2.64872   3.85547   0.03032
H     3.31760   4.70107   0.11453
C    -2.82300  -0.10949   0.47445
N     2.01521   0.96282   1.89443
H     2.80236   1.02570   2.52012
H     1.67697   0.02626   1.62954
C    -1.40393  -4.00458  -0.20162
H    -0.96375  -4.97374  -0.37092
C     0.92972   2.61448  -1.00591
H     0.18016   2.43927  -1.77377
C    -1.76888   0.83062   0.46143
C    -2.08547   2.15973   0.72474
H    -1.30816   2.91612   0.73701
C     1.75085   3.73075  -1.02216
H     1.68812   4.46275  -1.80814
C    -2.76975  -3.85566  -0.01197
H    -3.42619  -4.71272  -0.03262
C    -3.39126   2.54947   0.98541
H    -3.61150   3.58771   1.19093
C    -2.41956  -1.48996   0.22783
C    -3.27764  -2.58966   0.20666
H    -4.33514  -2.44819   0.35981
C    -4.13518   0.28805   0.73077
H    -4.93887  -0.43386   0.73428
C    -4.41567   1.61609   0.98303
H    -5.43144   1.92566   1.18122
O     1.42144  -0.72204  -0.42503
