31

Pt    0.00000   0.00000   0.00000
Cl    1.87040  -0.06411  -1.22724
O    -2.58314  -3.10230  -1.06222
N    -0.96158  -1.57763  -0.90749
N    -1.72222   0.16339   1.24635
C    -0.91551  -1.98834  -2.31271
C    -1.04955  -0.76170  -3.20843
H    -0.23207  -0.07643  -2.98820
H    -1.99652  -0.25408  -3.03278
H    -0.99305  -1.05434  -4.25298
C     0.39132  -2.72950  -2.58988
H     0.48271  -3.59418  -1.93585
H     1.23020  -2.06223  -2.40693
H     0.41175  -3.05987  -3.62485
C    -2.13116  -2.94735  -2.40548
H    -2.95231  -2.53405  -2.99978
H    -1.86343  -3.93035  -2.79674
C    -1.87509  -2.25234  -0.30438
C    -2.15528  -2.23560   1.12870
C    -1.99328  -1.06793   1.89158
C    -2.11476  -1.13537   3.27317
H    -1.95789  -0.24283   3.86093
C    -2.42805  -2.33234   3.89267
H    -2.51159  -2.37089   4.96767
C    -2.65003  -3.47207   3.13569
H    -2.91472  -4.40003   3.61762
C    -2.51036  -3.42504   1.76215
H    -2.64871  -4.31095   1.16272
H    -2.47845   0.47041   0.63530
H    -1.47809   0.91162   1.90222
O     0.58085   1.29550   0.84071
