48

Zn    0.00000   0.00000   0.00000
Cl   -1.32312  -0.85414   1.52587
O    -1.90999   0.11495  -8.11384
O    -0.91859  -0.79061  -1.85262
N    -0.29053   0.24968  -6.58331
N    -0.88510  -0.34428  -4.08726
H    -0.30489  -0.01537  -4.87518
N     1.67954  -0.37794  -1.54935
H     1.93028  -1.36098  -1.59964
N     1.88291  -0.17036   1.10545
C    -0.78628   0.52655  -8.75337
C    -0.58057   0.82743 -10.08590
H    -1.37681   0.75458 -10.80841
C     0.69682   1.22614 -10.43474
H     0.90678   1.47286 -11.46405
C     1.72205   1.32025  -9.49283
H     2.70053   1.63902  -9.81878
C     1.51871   1.01930  -8.16159
H     2.30820   1.09397  -7.43180
C     0.24206   0.61600  -7.79415
C    -1.54373  -0.03001  -6.81712
C    -2.52242  -0.45929  -5.84336
C    -3.82733  -0.72019  -6.26873
H    -4.06535  -0.59912  -7.31432
C    -4.79434  -1.12189  -5.37174
H    -5.79856  -1.31920  -5.71331
C    -4.46875  -1.26662  -4.03100
H    -5.22133  -1.57592  -3.32225
C    -3.18365  -1.01681  -3.58657
H    -2.93916  -1.12828  -2.54351
C    -2.19558  -0.61214  -4.47876
C    -0.34255  -0.40783  -2.86208
C     1.10170   0.06789  -2.79957
H     1.66114  -0.24826  -3.68985
H     1.04912   1.16193  -2.76711
C     2.78975   0.40809  -1.04474
H     2.50765   1.46256  -1.15191
H     3.72914   0.23054  -1.58709
C     2.97412   0.16098   0.42628
C     4.20392   0.31217   1.05494
H     5.07505   0.58778   0.48057
C     4.28451   0.10975   2.42231
H     5.22761   0.22355   2.93581
C     3.13736  -0.24236   3.11732
H     3.15899  -0.41162   4.18155
C     1.95232  -0.36990   2.41314
H     1.02126  -0.64129   2.89102
O     0.01821   1.58729  -0.45018
