64

Ni    0.00000   0.00000   0.00000
P    -0.47934   1.74643  -1.14909
N     2.46591  -3.79925   2.00002
C     0.43986  -1.85310   0.76313
C     1.52435  -1.40918  -0.03181
C     1.04840  -1.16953  -1.33163
C    -0.28314  -1.74661  -1.44346
C    -1.13323  -1.93980  -2.52658
C    -2.35051  -2.56085  -2.30570
C    -2.72963  -2.97257  -1.03103
C    -1.90344  -2.78163   0.06345
C    -0.66700  -2.17608  -0.13445
C     0.56436  -2.33610   2.17863
C     1.14692  -3.72403   2.11869
C     0.33958  -4.85758   2.13742
C     0.93635  -6.10198   2.03449
C     2.31528  -6.17592   1.91359
C     3.03026  -4.98863   1.90276
C     0.38520   3.30488  -0.79299
C     0.41321   4.35313  -1.70943
C     1.06227   5.53061  -1.38669
C     1.68728   5.66810  -0.15691
C     1.66952   4.62314   0.75196
C     1.02239   3.44212   0.43513
C    -0.28937   1.60412  -2.95725
C    -1.35794   1.31984  -3.79839
C    -1.14098   1.13591  -5.15349
C     0.13895   1.22420  -5.67417
C     1.21040   1.49501  -4.83623
C     0.99854   1.67682  -3.48360
C    -2.24751   2.14933  -0.97385
C    -3.10810   1.07319  -0.77174
C    -4.46881   1.28189  -0.65932
C    -4.97697   2.56894  -0.73947
C    -4.12232   3.64223  -0.92728
C    -2.75815   3.43817  -1.04567
H     2.53457  -1.27303   0.32194
H     1.65153  -0.89092  -2.18416
H    -0.84467  -1.61469  -3.51649
H    -3.01972  -2.73014  -3.13665
H    -3.68811  -3.45190  -0.89467
H    -2.21884  -3.09094   1.04915
H    -0.40872  -2.34063   2.66999
H     1.24446  -1.68581   2.73050
H    -0.73092  -4.76534   2.23622
H     0.33572  -7.00059   2.04909
H     2.81988  -7.12609   1.83189
H     4.10947  -4.98487   1.81431
H    -0.06356   4.24103  -2.67388
H     1.08118   6.34461  -2.09690
H     2.19197   6.59085   0.08897
H     2.16156   4.72775   1.70725
H     0.99771   2.61577   1.13501
H    -2.35647   1.24369  -3.39200
H    -1.97530   0.91852  -5.80452
H     0.30419   1.07769  -6.73137
H     2.21043   1.55848  -5.24012
H     1.82873   1.88216  -2.81941
H    -2.69293   0.07274  -0.68753
H    -5.13200   0.44452  -0.50104
H    -6.03978   2.73652  -0.64517
H    -4.51889   4.64583  -0.97712
H    -2.09426   4.27963  -1.17926
O    -0.68305   0.60137   1.37633
