53

Au    0.00000   0.00000   0.00000
N     2.05664  -0.45550  -2.12475
N     2.71960   1.09087  -0.55312
C     1.73411   0.34105  -1.10117
C     3.35631  -0.47227  -2.72013
C     4.22293  -1.53984  -2.52138
H     3.93521  -2.34778  -1.86571
C     5.45379  -1.55351  -3.14944
H     6.12786  -2.38041  -2.98518
C     5.81857  -0.51670  -3.99213
H     6.77829  -0.53450  -4.48545
C     4.94891   0.53823  -4.20581
H     5.22599   1.34376  -4.86944
C     3.71895   0.56184  -3.57339
H     3.03371   1.38210  -3.73231
C     1.04062  -1.26227  -2.86269
C     1.61242  -1.77672  -4.19212
H     2.44441  -2.45993  -4.04594
H     1.93948  -0.96071  -4.83188
H     0.82557  -2.31754  -4.71235
C     0.63846  -2.48178  -2.03019
H     0.17384  -2.18005  -1.09317
H     1.51012  -3.09238  -1.80546
H    -0.07361  -3.08730  -2.58358
C    -0.17204  -0.39511  -3.21443
H    -0.71249  -0.08072  -2.32612
H    -0.85379  -0.96264  -3.84119
H     0.14637   0.49100  -3.75888
C     4.05075   0.58749  -0.42294
C     5.16146   1.18513  -1.00837
H     5.04224   2.04844  -1.64263
C     6.42134   0.65436  -0.80448
H     7.27566   1.12216  -1.27039
C     6.59178  -0.46779  -0.01135
H     7.57888  -0.87554   0.14522
C     5.49102  -1.06320   0.57866
H     5.61347  -1.93645   1.20184
C     4.22766  -0.53798   0.37689
H     3.36391  -1.00052   0.83319
C     2.39512   2.24006   0.33484
C     3.55784   3.24201   0.34297
H     4.47138   2.80664   0.73772
H     3.28658   4.07831   0.98213
H     3.74585   3.62946  -0.65490
C     2.16870   1.77019   1.77382
H     3.07219   1.31102   2.17044
H     1.35622   1.04616   1.82012
H     1.90441   2.61673   2.40125
C     1.17428   2.99101  -0.20406
H     1.10391   3.96160   0.27913
H     0.25111   2.45186  -0.01324
H     1.26971   3.14226  -1.27696
O    -1.27520  -0.39917   0.96801
