67

Cu    0.00000   0.00000   0.00000
C    -1.87340  -0.00000   0.57112
N    -2.48187  -1.16645   0.76437
C    -3.83495  -1.46033   1.24049
H    -4.00383  -2.51851   1.02497
H    -4.58293  -0.90600   0.67708
C    -3.96935  -1.26915   2.73214
C    -4.01035  -2.42342   3.47943
H    -3.96803  -3.37856   2.97530
C    -4.09912  -2.40983   4.87374
H    -4.13055  -3.34202   5.41654
C    -4.14099  -1.21302   5.52438
H    -4.20679  -1.16944   6.60143
C    -4.09742  -0.00000   4.80711
C    -4.00812  -0.00000   3.38072
C    -1.68629  -2.33916   0.53846
C    -1.84961  -3.03036  -0.66512
C    -1.09986  -4.17323  -0.88594
H    -1.21309  -4.70417  -1.82021
C    -0.19498  -4.63899   0.05865
C    -0.04803  -3.93123   1.24087
H     0.66473  -4.27013   1.97846
C    -0.77993  -2.78056   1.50148
C    -2.79642  -2.52405  -1.71291
H    -2.59893  -3.00677  -2.66605
H    -2.68507  -1.44780  -1.83947
H    -3.83208  -2.72680  -1.43778
C     0.59687  -5.88430  -0.19374
H     0.03082  -6.75849   0.13067
H     1.53408  -5.86345   0.35614
H     0.81201  -5.99632  -1.25356
C    -0.53178  -2.02785   2.77361
H    -0.38485  -2.71868   3.60083
H    -1.34942  -1.35672   3.02160
H     0.37749  -1.43469   2.66942
N    -2.48187   1.16645   0.76437
C    -3.83495   1.46033   1.24050
H    -4.00383   2.51851   1.02497
H    -4.58293   0.90600   0.67708
C    -3.96935   1.26915   2.73214
C    -4.01034   2.42341   3.47944
H    -3.96803   3.37856   2.97530
C    -4.09912   2.40983   4.87374
H    -4.13054   3.34201   5.41654
C    -4.14098   1.21302   5.52438
H    -4.20679   1.16944   6.60143
C    -1.68629   2.33915   0.53845
C    -1.84961   3.03036  -0.66512
C    -1.09986   4.17322  -0.88594
H    -1.21309   4.70417  -1.82021
C    -0.19498   4.63899   0.05865
C    -0.04803   3.93123   1.24087
H     0.66473   4.27013   1.97845
C    -0.77993   2.78056   1.50148
C    -2.79642   2.52405  -1.71291
H    -2.59893   3.00677  -2.66605
H    -2.68507   1.44780  -1.83947
H    -3.83208   2.72680  -1.43778
C     0.59687   5.88430  -0.19374
H     0.03083   6.75849   0.13067
H     1.53408   5.86345   0.35613
H     0.81201   5.99632  -1.25356
C    -0.53178   2.02785   2.77361
H    -0.38485   2.71868   3.60083
H    -1.34942   1.35672   3.02160
H     0.37749   1.43470   2.66942
O     1.62137   0.00000  -0.30605
