44

Pt    0.00000   0.00000   0.00000
S     1.64740  -0.85276   1.45855
N    -1.22379   1.03965  -1.12266
C     1.40382   1.19297  -0.94807
H     0.96989   2.04608  -1.47204
H     2.23538   1.52749  -0.32840
C     1.79151   0.08715  -1.83607
C     3.02679  -0.51458  -1.62318
H     3.65598  -0.12705  -0.83301
C     3.49273  -1.57396  -2.39756
H     4.46046  -2.00572  -2.18584
C     2.73461  -2.03291  -3.43800
H     3.09225  -2.82515  -4.07853
C     1.47142  -1.46580  -3.70757
C     0.74716  -1.93402  -4.82202
H     1.17692  -2.72799  -5.41533
C    -0.45911  -1.38640  -5.16068
H    -0.99974  -1.72639  -6.03080
C    -1.00409  -0.39719  -4.35057
H    -1.98075  -0.00366  -4.59483
C    -0.37106   0.05058  -3.19522
C     0.94502  -0.42896  -2.87935
C    -1.19815   0.93950  -2.40798
H    -1.96119   1.47272  -2.97729
C    -2.02688   1.99426  -0.48629
C    -2.30249   3.22576  -1.08515
H    -1.88634   3.46304  -2.05353
C    -3.06799   4.16544  -0.42134
H    -3.26692   5.11646  -0.89270
C    -3.56995   3.89740   0.84085
H    -4.16873   4.63486   1.35320
C    -3.28646   2.68438   1.44795
H    -3.66537   2.47196   2.43612
C    -2.51575   1.74211   0.79732
H    -2.29995   0.79589   1.27650
C     1.91108  -2.59305   1.01921
H     2.31381  -2.61366   0.01010
H     0.97134  -3.13745   1.05697
H     2.62960  -3.01433   1.71733
C     0.78725  -1.08397   3.04241
H     0.47891  -0.10120   3.38892
H     1.48308  -1.52603   3.75096
H    -0.08082  -1.72472   2.90818
O    -1.05714  -1.24890   0.21260
