61

Zn    0.00000   0.00000   0.00000
Cl    1.67265  -0.27115   1.41598
N     0.57122   0.69023  -1.90025
N    -0.04339  -1.82095  -1.04616
C     0.71099   3.03451  -1.27567
H     1.53756   2.86148  -0.57944
H    -0.21252   2.98693  -0.69128
C     0.86524   4.38591  -1.96504
H     0.89978   5.20367  -1.24641
C    -0.12344   4.51824  -3.15184
C     0.93776   3.72391  -3.97005
H     1.03445   3.92929  -5.03542
C     0.79279   2.27418  -3.66202
C     0.74798   1.25548  -4.59675
H     0.80864   1.48172  -5.65215
C     0.61782  -0.06144  -4.17176
C     0.50757  -1.22098  -5.11776
H    -0.55503  -1.42072  -5.29493
H     0.96274  -0.97005  -6.07694
C     1.16420  -2.46924  -4.52872
H     2.24761  -2.31586  -4.47304
H     0.98345  -3.33190  -5.17161
C     0.65421  -2.73822  -3.14340
C     0.50206  -4.01886  -2.62514
H     0.72251  -4.88200  -3.23762
C     0.07243  -4.18168  -1.32034
C    -0.14591  -5.48772  -0.63890
H     0.04467  -6.34547  -1.28270
C     0.53412  -5.44225   0.76176
C    -0.73151  -4.67346   1.22061
H    -1.06687  -4.82455   2.24582
C    -0.62491  -3.19235   0.87383
H    -1.59042  -2.69514   1.01000
H     0.09095  -2.68000   1.52317
C    -0.18969  -3.03585  -0.54959
C     0.36821  -1.65960  -2.30659
C     0.52940  -0.29638  -2.79976
C     0.69570   1.94286  -2.29950
C     2.00048   4.27154  -2.99547
H     2.81660   3.59525  -2.74643
H     2.40922   5.22914  -3.30301
C    -1.50068  -5.37630   0.09008
H    -2.26879  -4.79057  -0.41227
H    -1.91294  -6.33929   0.37523
C    -0.25806   5.95852  -3.63549
H    -0.84482   6.53154  -2.92068
H    -0.77103   5.98437  -4.59506
H     0.70487   6.44646  -3.75130
C    -1.51913   3.92610  -3.01509
H    -1.51485   2.88572  -2.70612
H    -2.04144   3.99222  -3.96821
H    -2.08401   4.49059  -2.27649
C     0.63240  -6.82619   1.39539
H    -0.30807  -7.36698   1.35277
H     0.92183  -6.73108   2.43980
H     1.38969  -7.41832   0.88502
C     1.89068  -4.76217   0.88254
H     2.65500  -5.38085   0.41493
H     2.14545  -4.64068   1.93307
H     1.92102  -3.78211   0.41727
O    -1.48426   0.69071   0.20590
