31

Pt    0.00000   0.00000   0.00000
Cl   -1.68328   0.35934  -1.42795
O    -1.59429  -2.09058   5.74090
O     0.95661  -3.08757   5.42616
N     1.38078  -0.58246   1.39908
N    -1.06807   0.38259   1.70663
C     2.68848  -0.84449   1.30345
C     3.31327  -1.68825   2.22770
H     4.35970  -1.91663   2.10270
C     2.60043  -2.21445   3.28353
H     3.05197  -2.87653   4.00659
C     1.26391  -1.84402   3.44918
C     0.69109  -1.01971   2.47364
C     0.49786  -2.30973   4.61887
C    -0.91596  -1.75352   4.79554
C    -1.39353  -0.79349   3.78471
C    -0.64342  -0.49287   2.64176
C    -2.18935   1.08031   1.91678
C    -2.99967   0.80559   3.02326
H    -3.91985   1.35422   3.14620
C    -2.62288  -0.14959   3.94271
H    -3.23200  -0.39089   4.80048
C     3.45785  -0.20670   0.20984
H     4.50990  -0.12615   0.46834
H     3.04408   0.77455  -0.02023
H     3.35710  -0.80376  -0.69932
C    -2.53877   2.15871   0.96310
H    -1.63445   2.63237   0.58199
H    -3.18823   2.89529   1.42762
H    -3.04686   1.72613   0.09784
O     0.83379  -0.54666  -1.31471
