57

Ru    0.00000   0.00000   0.00000
S    -1.88175  -1.18967   0.32712
S    -0.26075   1.07052   1.98590
S     1.42708  -1.48602   0.86379
O     1.78491   1.15777  -0.26992
C     2.10531   1.69672  -1.36787
O     0.20215   2.41030  -2.81794
C     1.37611   2.17846  -2.57153
O     3.11449   2.92089  -4.24800
C     2.72278   2.52160  -3.17949
C     3.33105   2.15446  -1.89982
C     5.69253   2.77823  -2.14015
H     5.49131   3.04413  -3.16612
C     6.96562   2.91005  -1.62470
H     7.75249   3.28304  -2.26118
C     7.22128   2.56536  -0.29869
C     6.17510   2.08827   0.49931
H     6.39308   1.83160   1.52429
C     4.90863   1.95789  -0.01556
H     4.10097   1.60082   0.60666
C     4.64444   2.29679  -1.35068
O     8.43192   2.65584   0.31144
C     9.52835   3.13794  -0.42801
H    10.37461   3.12307   0.25703
H     9.36054   4.16306  -0.77295
H     9.74724   2.49591  -1.28700
O    -1.82014  -2.00792   1.53613
C    -3.36095  -0.14709   0.48853
H    -3.13437   0.65061   1.19081
H    -4.17214  -0.76352   0.85785
H    -3.58128   0.26930  -0.48707
C    -2.48132  -2.26100  -1.00942
H    -1.74764  -3.04322  -1.16801
H    -2.55369  -1.64818  -1.90040
H    -3.43781  -2.68066  -0.72126
O    -1.31460   2.07970   1.80649
C    -0.67879   0.16887   3.50148
H    -1.47351  -0.53295   3.27069
H    -1.00020   0.89020   4.24341
H     0.20706  -0.37196   3.80893
C     1.19840   1.94735   2.61083
H     1.55289   2.60258   1.82186
H     1.93991   1.19057   2.83775
H     0.91753   2.51940   3.48715
O     1.74689  -1.19213   2.25403
C     0.93282  -3.22691   0.76770
H    -0.01112  -3.32742   1.29469
H     1.69831  -3.83420   1.23591
H     0.81952  -3.46168  -0.28492
C     2.99681  -1.61296  -0.03227
H     3.48537  -0.64574   0.01622
H     2.75697  -1.85971  -1.06098
H     3.60605  -2.37359   0.44123
O    -1.36051   1.51446  -0.93979
H    -0.85352   1.90046  -1.72485
H    -1.47654   2.22099  -0.28311
O     0.24793  -0.77527  -1.43526
