30

Hg    0.00000   0.00000   0.00000
Br   -2.44055   0.64784   0.49341
Br    0.91624  -2.12547  -0.81115
N    -0.55316   1.03190  -2.60847
N    -1.37936   4.39769  -0.32487
H    -0.40619   4.16108  -0.14112
N    -1.70267   3.68174   1.83184
H    -0.68959   3.50240   1.85241
C    -0.58470   2.32298  -2.31279
H     0.36450   2.76550  -2.03559
C    -1.74648   3.08792  -2.32659
C    -2.91208   2.47962  -2.77097
H    -3.84322   3.02728  -2.79777
C    -2.86502   1.15571  -3.17588
H    -3.74744   0.65610  -3.54179
C    -1.67204   0.46285  -3.04298
H    -1.60018  -0.58885  -3.28634
C    -1.71026   4.47772  -1.73900
H    -0.92991   5.07468  -2.21716
H    -2.66689   4.98362  -1.87130
C    -2.23249   4.04865   0.64423
C    -3.63861   4.10966   0.54946
H    -4.09877   4.38506  -0.38278
C    -4.40934   3.78251   1.63244
H    -5.48459   3.80840   1.55403
C    -3.81038   3.39681   2.84016
H    -4.40810   3.12269   3.69164
C    -2.44765   3.34418   2.89734
H    -1.90954   3.03082   3.77793
O     0.69428   1.40146   0.52573
