70

Ru    0.00000   0.00000   0.00000
Cl    1.08065   1.53325  -1.37858
O    -0.54121   1.77672   1.38512
N    -0.35636  -2.19793  -2.09521
N     1.39683  -2.39474  -0.84592
C    -1.78699   0.37956  -0.50586
H    -2.35335  -0.08651  -1.30885
C    -2.51237   1.35223   0.22182
C    -3.87275   1.61065  -0.01658
H    -4.37369   1.04620  -0.78971
C    -4.55271   2.55408   0.72017
H    -5.59851   2.74253   0.53009
C    -3.89081   3.26455   1.71164
H    -4.42242   4.00199   2.29415
C    -2.54568   3.04565   1.96724
H    -2.06697   3.61712   2.74693
C    -1.84925   2.09771   1.23265
C     0.30403   2.60358   2.18433
H    -0.17768   2.76055   3.16025
C     0.56184   3.93110   1.47404
H     0.97343   3.73144   0.48552
H     1.27423   4.52341   2.04184
H    -0.35555   4.50233   1.35278
C     1.59892   1.83049   2.38338
H     1.37810   0.81583   2.71766
H     2.21951   2.31736   3.13131
H     2.14509   1.80018   1.44130
C     0.33481  -1.60585  -1.12611
C     2.27069  -2.26993   0.23421
C     2.69055  -1.00789   0.64889
H     2.37018  -0.13258   0.08042
C     3.57729  -0.88052   1.70167
H     3.91293   0.09747   2.01177
C     4.04857  -2.01066   2.34826
H     4.73767  -1.91553   3.17352
C     3.63777  -3.26309   1.93036
H     4.00474  -4.14536   2.43512
C     2.75324  -3.41684   0.87300
C     2.34089  -4.79756   0.43407
H     2.12360  -5.40556   1.31402
H     3.18474  -5.26585  -0.08501
C     1.12793  -4.76272  -0.49027
H     0.97642  -5.73353  -0.96467
H     0.23425  -4.50542   0.08260
C     1.35952  -3.67692  -1.53881
H     2.31760  -3.84708  -2.04455
C     0.21446  -3.47014  -2.52542
H     0.56087  -3.39535  -3.56170
H    -0.53600  -4.26318  -2.47242
C    -1.55868  -1.79342  -2.73052
C    -1.50288  -0.94832  -3.83818
C    -2.68911  -0.63011  -4.48326
H    -2.66181   0.02918  -5.33873
C    -3.90781  -1.13450  -4.05197
C    -3.93445  -1.95917  -2.93528
H    -4.88137  -2.33774  -2.57741
C    -2.77273  -2.29716  -2.25795
C    -0.19631  -0.37206  -4.28176
H    -0.33648   0.29457  -5.12773
H     0.50473  -1.15478  -4.56811
H     0.25038   0.19192  -3.46231
C    -5.17945  -0.76172  -4.75180
H    -5.60241   0.13557  -4.29882
H    -5.91544  -1.55834  -4.67066
H    -4.99717  -0.55265  -5.80307
C    -2.81687  -3.12266  -1.00876
H    -2.18856  -2.66849  -0.24083
H    -2.45919  -4.13633  -1.18991
H    -3.83433  -3.18735  -0.63286
O    -0.27097  -0.98978   1.29206
