62

Zn    0.00000   0.00000   0.00000
Cl    0.53831   1.94610  -0.90022
P     2.25622  -0.49619   1.03799
O     2.16353  -2.65045  -2.66044
N     0.67984  -1.63823  -1.18374
C     1.23478  -3.65900  -3.06830
H     0.76559  -3.29888  -3.99177
C     2.03534  -4.95312  -3.27494
H     1.74779  -5.44191  -4.20379
H     3.09256  -4.69840  -3.33761
C     1.73335  -5.83864  -2.05338
H     2.64013  -6.25055  -1.61459
H     1.09017  -6.66925  -2.34367
C     0.99502  -4.92472  -1.07424
H     0.35402  -5.47201  -0.38573
H     1.71046  -4.34618  -0.48742
C     0.20391  -3.98010  -1.98029
C    -1.06234  -4.62306  -2.58551
H    -0.92200  -4.80834  -3.65099
H    -1.27371  -5.58023  -2.11144
C    -2.21024  -3.62795  -2.35322
H    -2.90080  -3.59333  -3.19370
H    -2.77164  -3.90348  -1.46069
C    -1.52216  -2.28885  -2.11495
H    -2.14793  -1.58112  -1.57476
H    -1.20650  -1.83357  -3.05657
C    -0.29214  -2.69870  -1.30007
H    -0.61812  -2.92297  -0.27806
C     1.78501  -1.69563  -1.82003
C     2.80839  -0.63833  -1.70036
C     3.14582  -0.03371  -0.48189
C     4.11264   0.96500  -0.47169
H     4.37030   1.44535   0.46057
C     4.73984   1.36005  -1.64018
H     5.47962   2.14580  -1.61042
C     4.41583   0.75223  -2.83998
H     4.89904   1.05800  -3.75535
C     3.46125  -0.24785  -2.86513
H     3.19774  -0.72317  -3.79786
C     3.16295   0.39503   2.33966
C     2.77353   1.71418   2.56799
H     1.98533   2.14471   1.96291
C     3.39846   2.45890   3.55014
H     3.10065   3.48237   3.72200
C     4.40028   1.88667   4.31914
H     4.88448   2.46563   5.09147
C     4.77654   0.57091   4.10442
H     5.55290   0.12538   4.70909
C     4.16087  -0.17977   3.11795
H     4.45330  -1.20711   2.95337
C     2.75126  -2.23180   1.27147
C     3.88848  -2.78509   0.69165
H     4.52407  -2.17884   0.06066
C     4.20187  -4.11242   0.92718
H     5.08474  -4.54197   0.47630
C     3.39028  -4.88860   1.73983
H     3.64112  -5.92338   1.91992
C     2.25464  -4.34035   2.31526
H     1.61878  -4.94692   2.94246
C     1.93141  -3.01659   2.07787
H     1.03919  -2.57929   2.50602
O    -1.28047  -0.56106   0.87641
