43

Au    0.00000   0.00000   0.00000
C     1.94321  -0.35921  -0.28260
N     3.00811   0.08660   0.40554
C     2.95636   1.00129   1.52044
C     3.34391   2.38865   1.06737
C     2.52184   3.06984   0.17783
C     2.87799   4.32518  -0.27887
C     4.05818   4.91073   0.15011
C     4.87926   4.23764   1.03763
C     4.52560   2.97809   1.49156
C     4.16761  -0.36945  -0.16141
C     3.81209  -1.12774  -1.22545
N     2.44513  -1.10505  -1.28077
C     1.65324  -1.76603  -2.25856
C     1.29419  -3.09736  -2.05376
C     0.52295  -3.72463  -3.01839
C     0.10705  -3.05517  -4.16179
C     0.47674  -1.72893  -4.33306
C     1.24822  -1.06435  -3.39214
C     1.61055   0.37863  -3.56405
C    -0.71315  -3.76128  -5.19619
C     1.71415  -3.80829  -0.80382
H     1.92957   0.99878   1.89799
H     3.63256   0.64970   2.30472
H     1.59794   2.61118  -0.14691
H     2.23213   4.84859  -0.96753
H     4.33550   5.89185  -0.20506
H     5.79805   4.69195   1.37759
H     5.16891   2.45643   2.18646
H     5.13225  -0.12051   0.22933
H     4.40460  -1.66855  -1.93443
H     0.23142  -4.75428  -2.87117
H     0.15004  -1.19562  -5.21369
H     1.38287   0.71289  -4.57225
H     1.03695   0.98564  -2.86234
H     2.66842   0.54930  -3.36700
H    -1.27852  -3.05165  -5.79435
H    -1.40363  -4.45958  -4.72947
H    -0.06256  -4.32726  -5.86380
H     1.36641  -4.83722  -0.81403
H     1.29201  -3.30783   0.06797
H     2.79899  -3.80802  -0.69808
O    -1.60581   0.31684   0.20857
