67

Ir    0.00000   0.00000   0.00000
P     0.66543   1.05596  -2.19502
C    -0.75518   1.26658   1.59055
C    -0.48341   2.05153   0.46863
C     0.85328   2.74670   0.75532
C     0.69946   2.98673   2.26794
C     0.42009   1.50063   2.55285
C     1.61611   0.87314   1.85531
C     1.88000   1.62683   0.77925
C    -0.40590  -1.48222   1.50733
C     0.57773  -2.67456   1.66549
C    -0.07808  -3.78750   0.84667
C    -1.40743  -3.68523   1.59572
C    -0.91939  -3.75719   3.01931
C     0.26584  -3.16164   3.06111
C    -1.77101  -2.19941   1.33601
C    -2.37615  -2.00453  -0.06004
C    -3.88894  -1.66505  -0.00917
C    -4.35562  -1.64327  -1.44131
C    -3.83616  -0.56269  -2.00952
C    -3.00899   0.14757  -0.96218
C    -3.83975  -0.16521   0.28340
C    -1.78216  -0.78580  -0.81170
C     0.28246   2.80826  -2.58274
C     1.23977   3.81561  -2.53354
C     0.88840   5.13473  -2.76132
C    -0.42762   5.47029  -3.02847
C    -1.39341   4.47776  -3.06299
C    -1.04049   3.16129  -2.83513
C     2.41749   0.96004  -2.74880
C    -0.09017   0.26961  -3.67685
H    -1.73714   1.06288   1.98758
H    -1.21881   2.53337  -0.15823
H     1.08407   3.60273   0.12654
H     1.61012   3.35503   2.74264
H    -0.13672   3.63909   2.51816
H     0.25789   1.20644   3.58612
H     2.16166   0.02684   2.23209
H     2.70491   1.53597   0.09646
H    -0.40956  -0.97095   2.47335
H     1.62302  -2.46226   1.46099
H    -0.14461  -3.56176  -0.21193
H     0.41345  -4.74946   0.98918
H    -2.19498  -4.38524   1.32418
H    -1.48755  -4.17032   3.83366
H     0.88213  -2.96480   3.92090
H    -2.48002  -1.84742   2.08931
H    -2.21987  -2.91237  -0.64523
H    -4.46013  -2.29193   0.67132
H    -4.94608  -2.41657  -1.89748
H    -3.89718  -0.25764  -3.03918
H    -2.79280   1.19248  -1.16485
H    -4.82341   0.30329   0.25736
H    -3.34147   0.07376   1.21639
H    -1.47263  -1.10970  -1.81203
H     2.27195   3.57599  -2.32309
H     1.64651   5.90430  -2.72822
H    -0.69999   6.50015  -3.20533
H    -2.42379   4.73197  -3.26593
H    -1.79978   2.39241  -2.85967
H     2.68640  -0.09283  -2.80313
H     3.09183   1.45311  -2.05278
H     2.51385   1.42072  -3.73205
H     0.22441  -0.77198  -3.69937
H     0.25307   0.78157  -4.57580
H    -1.17479   0.31029  -3.62813
O     0.84519  -1.13323  -0.85085
