48

Ru    0.00000   0.00000   0.00000
Cl   -0.34021   0.78964   2.20602
Cl   -1.28742  -1.86237   0.53833
N     0.69201   2.04945  -0.75380
P    -2.04171   0.91293  -0.67637
O     2.52398  -1.10692   0.62604
C     0.67418   3.04280   0.32954
H     1.07138   4.00040  -0.02517
H     1.27467   2.68755   1.16685
H    -0.34775   3.18805   0.68374
C     2.07632   1.84098  -1.20178
H     2.55172   2.77913  -1.50182
H     2.08084   1.14519  -2.04256
H     2.66399   1.42984  -0.37959
N     1.48375  -0.67708   0.38440
C    -3.06234   1.79668   0.54004
C    -3.47881   3.11188   0.37194
H    -3.20241   3.66340  -0.51635
C    -4.24512   3.71882   1.35176
H    -4.56676   4.74174   1.22049
C    -4.59324   3.02278   2.49718
H    -5.18721   3.50435   3.25968
C    -4.17040   1.71463   2.67131
H    -4.42887   1.17585   3.57036
C    -3.40275   1.10121   1.69964
H    -3.03991   0.09129   1.84409
C    -3.25253  -0.07282  -1.60512
C    -4.33452  -0.64481  -0.94142
H    -4.48378  -0.46344   0.11266
C    -5.22016  -1.45273  -1.63092
H    -6.05481  -1.89637  -1.10863
C    -5.03311  -1.69991  -2.98043
H    -5.72188  -2.33773  -3.51426
C    -3.95613  -1.13389  -3.64242
H    -3.80120  -1.32965  -4.69309
C    -3.06482  -0.32464  -2.96274
H    -2.21615   0.09542  -3.48198
C    -1.50173   2.18883  -1.85462
C    -2.36034   2.73580  -2.80206
H    -3.39524   2.42384  -2.81700
C    -1.88908   3.65231  -3.72294
H    -2.55488   4.07012  -4.46223
C    -0.55552   4.02087  -3.69451
H    -0.17393   4.72962  -4.41351
C     0.30244   3.49128  -2.74503
H     1.33110   3.81424  -2.74853
C    -0.15713   2.56641  -1.81597
O     0.03062  -0.44795  -1.58774
