67

Hf    0.00000   0.00000   0.00000
N    -1.95836   0.07728   0.82247
N     0.85397  -1.49513   1.24585
C     0.53361  -4.87766   0.07735
H    -0.49838  -4.61052  -0.13601
H     0.54433  -5.59839   0.90257
H     0.97247  -5.36791  -0.80091
N     1.26638  -3.70397   0.48328
C     1.34593  -1.70849   2.59162
H     1.58371  -2.76802   2.75860
C     0.02739   2.91496   1.58272
H    -0.69017   3.50963   2.16126
C    -3.86376   2.37554   1.55815
H    -3.90619   2.01021   0.53661
H    -3.83616   3.47241   1.53205
H    -4.76759   2.06896   2.09390
C     0.74962  -2.42699   0.31313
C    -1.09696  -2.56884  -2.82456
H    -1.83643  -3.17080  -2.29957
H    -0.96788  -2.97053  -3.82649
H    -1.45742  -1.54391  -2.90145
C    -1.70642   1.18931   1.49261
N     0.03668  -2.02179  -0.74131
C     0.23648  -2.57845  -2.07642
H     0.61661  -3.60608  -2.02532
N    -2.68354   1.86196   2.21085
C     2.68268  -3.90525   0.67595
H     3.16800  -2.95008   0.85196
H     3.12874  -4.36000  -0.21803
H     2.86539  -4.57006   1.52589
N    -0.41432   1.52850   1.45839
C     0.25069  -1.28100   3.57390
H    -0.59463  -1.96263   3.51891
H    -0.08765  -0.27919   3.30892
H     0.63204  -1.27809   4.59261
C    -3.19315  -0.67820   0.88082
H    -3.89343  -0.23180   1.60011
C    -2.42135   2.41042   3.51833
H    -1.47440   2.02996   3.89294
H    -3.21964   2.09174   4.19792
H    -2.39943   3.50744   3.51866
C     1.38814   2.94469   2.27929
H     1.32034   2.50868   3.27429
H     1.74016   3.96918   2.37087
H     2.10635   2.37881   1.68745
C    -2.85909  -2.10455   1.32909
H    -2.52406  -2.10777   2.36344
H    -2.05821  -2.49199   0.69922
H    -3.73278  -2.74673   1.24211
C     2.59348  -0.84626   2.80246
H     3.38534  -1.12830   2.11272
H     2.96214  -0.94621   3.82077
H     2.33565   0.19319   2.60874
C     1.26668  -1.72271  -2.82510
H     2.22146  -1.72505  -2.30027
H     0.91125  -0.69262  -2.89870
H     1.41865  -2.11158  -3.82998
C    -3.81799  -0.71053  -0.51671
H    -4.06708   0.29139  -0.85766
H    -4.72052  -1.31731  -0.52076
H    -3.09410  -1.12995  -1.21281
Cl   -0.89740   1.07607  -1.89006
C     0.13998   3.52960   0.18136
H    -0.82586   3.51497  -0.32270
H     0.85556   2.96188  -0.41760
H     0.48310   4.55997   0.25015
O     1.54544   0.42355  -0.39334
