67

Pd    0.00000   0.00000   0.00000
P    -1.46670   1.67764  -0.44247
C    -3.00502   1.43817  -1.43900
C    -1.12302   3.21198  -1.41477
B    -2.07940   3.60576  -2.81416
B    -1.99378   2.16031  -3.84494
B    -3.40697   2.45685  -2.79095
B    -2.84211   3.14609  -1.33193
B    -0.49090   2.81177  -2.87730
B    -0.79355   0.84965  -3.34883
B    -2.64770   0.86381  -2.91625
C    -1.87878   2.19495   1.26387
C    -3.13713   2.07638   1.84289
C    -3.30673   2.34733   3.18892
C    -2.22606   2.72831   3.96725
C    -0.96667   2.83841   3.40038
C    -0.79084   2.56254   2.05696
H    -2.09462   4.72937  -3.14464
H    -2.06634   2.27330  -5.01098
H    -4.53452   2.57199  -3.08176
H    -3.41498   3.78030  -0.53250
H    -3.80894   0.93780  -0.90491
H    -0.63286   4.01211  -0.86559
H     0.35353   3.49196  -3.33746
H    -0.30765   0.44503  -4.34452
H    -3.20431  -0.10486  -3.27387
H     0.07728   1.65633  -2.79855
H    -0.74164  -0.01523  -2.49964
H    -3.98423   1.76608   1.24831
H    -4.28638   2.25121   3.63278
H    -2.36362   2.93088   5.01860
H    -0.11974   3.12485   4.00516
H     0.19831   2.64778   1.61589
Br   -1.98079  -1.34581   0.47176
P     1.46651  -1.67782   0.44245
C     3.00484  -1.43839   1.43896
B     3.40678  -2.45707   2.79090
B     2.07921  -3.60598   2.81411
C     1.12282  -3.21216   1.41473
B     2.84191  -3.14630   1.33188
B     2.64750  -0.86403   2.91621
B     1.99359  -2.16053   3.84489
B     0.49070  -2.81200   2.87728
H     2.09442  -4.72960   3.14457
H     3.41476  -3.78050   0.53243
B     0.79334  -0.84989   3.34876
H     2.06615  -2.27352   5.01093
H    -0.35372  -3.49221   3.33745
H    -0.07749  -1.65658   2.79851
H     0.30745  -0.44524   4.34445
H     0.74141   0.01495   2.49954
H     3.20410   0.10464   3.27382
H     4.53432  -2.57221   3.08171
H     0.63265  -4.01228   0.86554
H     3.80877  -0.93801   0.90488
C     1.87857  -2.19514  -1.26390
C     3.13688  -2.07638  -1.84296
C     3.30648  -2.34735  -3.18899
C     2.22584  -2.72853  -3.96727
C     0.96649  -2.83881  -3.40036
C     0.79065  -2.56292  -2.05694
H    -0.19847  -2.64830  -1.61585
H     0.11958  -3.12542  -4.00510
H     2.36340  -2.93113  -5.01861
H     4.28610  -2.25109  -3.63288
H     3.98394  -1.76594  -1.24841
O     1.33895   0.90995  -0.31893
