44

Ni    0.00000   0.00000   0.00000
N     1.05274  -0.07689   1.53814
N    -0.22429   1.85803   0.47974
N     0.50747  -1.98162  -0.19219
C     0.91232   0.98637   2.36290
C     1.25737   1.12636   3.70594
H     1.65518   0.29376   4.26181
C     1.04769   2.33615   4.36222
H     1.33559   2.41058   5.40126
C     0.49646   3.42796   3.73526
H     0.36365   4.36244   4.25764
C     0.06065   3.31856   2.40349
C    -0.57395   4.35111   1.68487
H    -0.72616   5.31057   2.15753
C    -0.99082   4.11476   0.40233
H    -1.47473   4.88144  -0.18167
C    -0.80884   2.84943  -0.16733
H    -1.16763   2.65934  -1.16911
C     0.23976   2.08227   1.73622
C     1.79047  -1.21033   1.73241
C     2.84133  -1.38981   2.64323
H     3.18979  -0.56357   3.24027
C     3.47086  -2.61351   2.73994
H     4.27533  -2.73760   3.45009
C     3.09094  -3.67806   1.93908
H     3.57728  -4.63611   2.03598
C     2.10689  -3.49579   0.97996
H     1.84907  -4.31637   0.32571
C     1.48321  -2.27022   0.85900
C     1.14852  -2.16960  -1.51015
H     0.37810  -2.10322  -2.28208
H     1.61399  -3.15972  -1.57183
C     2.19352  -1.08451  -1.74327
H     1.73962  -0.09245  -1.57500
H     2.55302  -1.12176  -2.76785
H     3.03758  -1.19958  -1.06579
C    -0.67608  -2.84779  -0.03292
H    -0.37133  -3.89543   0.07266
H    -1.29579  -2.75610  -0.92843
C    -1.47994  -2.40899   1.18496
H    -0.92491  -2.58434   2.10482
H    -2.42149  -2.94914   1.23134
H    -1.70504  -1.33335   1.10822
O    -1.02937   0.00846  -1.28951
