34

Cu    0.00000   0.00000   0.00000
S    -2.17963   0.51987   0.05555
S     0.97379  -1.05113   1.72291
N    -2.12738   0.54706  -2.65497
N    -2.00520  -1.45148  -1.78873
N     3.33891  -0.01450   0.89596
N     2.00074   1.44974   1.80382
C    -2.07327  -0.13163  -1.48750
C    -2.14486   1.97606  -2.78103
H    -2.36409   2.40239  -1.80235
H    -2.91175   2.27842  -3.49353
H    -1.17016   2.33372  -3.11941
C    -2.04511  -0.35002  -3.68849
H    -2.03137  -0.03013  -4.70885
C    -1.97056  -1.58812  -3.15296
H    -1.88993  -2.54630  -3.62176
C    -1.88330  -2.48868  -0.80611
H    -1.06396  -2.24683  -0.11591
H    -1.67332  -3.43370  -1.30058
H    -2.80212  -2.57040  -0.22132
C     2.11306   0.14867   1.44098
C     3.83516  -1.23270   0.32324
H     3.16112  -2.04122   0.60453
H     4.83622  -1.44227   0.69942
H     3.86344  -1.14935  -0.76499
C     3.97684   1.19899   0.87867
H     4.95253   1.31315   0.45602
C     3.14911   2.10623   1.44168
H     3.27560   3.15527   1.60872
C     0.81520   2.02181   2.37252
H     0.64061   1.62206   3.37380
H    -0.05255   1.76474   1.75017
H     0.92094   3.10275   2.41791
O     0.90302   0.39344  -1.32373
