65

I    -1.01117   3.02631   1.22069
Zr    0.00000   0.00000   0.00000
C    -1.09667  -2.28605   1.02731
H    -0.76779  -3.30602   0.88073
C    -0.83446  -1.50095   2.15805
H    -0.24487  -1.79708   3.01439
C    -1.54888  -0.30070   2.03526
H    -1.64019   0.45020   2.80910
C    -1.96937  -1.57431   0.18448
H    -2.48542  -1.99485  -0.66689
C    -2.25157  -0.32307   0.80132
H    -3.02922   0.37641   0.50817
Si    2.14683   3.67531   2.27432
Si   -1.76251   1.45586  -2.82777
C     1.10101   3.14042   0.76521
C     0.45051   2.61247  -1.56881
C    -0.38939   1.56559  -1.52377
C     1.44225   2.87294  -0.48932
C     0.74510  -1.08074  -2.57531
H     0.20619  -1.07469  -3.50939
C     2.31398  -0.61460  -0.99413
H     3.20949  -0.23101  -0.51762
C     0.59029  -2.01316  -1.53835
H    -0.03873  -2.89309  -1.57963
C     1.80674  -0.22479  -2.24275
H     2.20875   0.54426  -2.88505
C     2.85862   3.04673  -0.97162
H     3.19007   2.11953  -1.44539
H     3.52381   3.26859  -0.14105
C     0.50915   3.73510  -2.58468
H    -0.18742   3.55347  -3.39848
H     0.21344   4.66351  -2.08314
C     2.27286   5.57109   2.06151
H     2.77753   6.01760   2.91108
H     1.28845   6.02238   1.98787
H     2.82905   5.84370   1.16998
C     2.90373   4.17960  -1.99962
H     2.63444   5.11847  -1.50986
H     3.91927   4.27946  -2.38876
C     3.89299   2.90806   2.34548
H     4.21748   2.85660   3.37956
H     4.62802   3.49901   1.80804
H     3.90873   1.89800   1.95270
C    -3.03488   2.86230  -2.53335
H    -3.36283   2.88196  -1.49756
H    -3.91372   2.72908  -3.15617
H    -2.61884   3.83934  -2.75413
C     1.92587   3.90092  -3.13401
H     2.22039   2.98847  -3.65839
H     1.94698   4.72070  -3.85563
C     1.22805   3.28051   3.89130
H     0.98129   2.22537   3.94999
H     0.30679   3.84781   3.97927
H     1.84886   3.52121   4.74882
C    -2.76669  -0.16894  -2.70920
H    -3.41062  -0.18768  -1.83648
H    -2.13068  -1.04939  -2.69848
H    -3.41356  -0.25167  -3.57750
C    -1.15132   1.51940  -4.65355
H    -1.62028   0.73814  -5.24362
H    -0.07711   1.38005  -4.72692
H    -1.39177   2.46657  -5.12658
C     1.56848  -1.73866  -0.54790
H     1.83153  -2.37270   0.29495
O     1.04675   0.31297   1.23647
