59

Ir    0.00000   0.00000   0.00000
N    -2.74997   0.53694   0.88474
N    -1.20070   1.00849   2.53258
C    -1.45925   0.55972   1.28678
C    -3.82668   0.88260   1.69989
C    -5.14198   0.80514   1.28856
H    -5.40573   0.45231   0.30614
C    -6.17180   1.16639   2.16313
H    -7.19148   1.09807   1.81394
C    -5.90891   1.59349   3.43515
H    -6.71026   1.87040   4.10307
C    -4.58025   1.67299   3.89699
C    -4.25070   2.09603   5.20066
H    -5.04650   2.37361   5.87500
C    -2.94429   2.14909   5.59824
H    -2.69510   2.46966   6.59899
C    -1.90423   1.79248   4.73222
H    -0.89347   1.84762   5.09803
C    -2.18603   1.38050   3.44600
C    -3.53267   1.31100   3.01606
C    -3.02404   0.22105  -0.50453
H    -2.07427   0.32385  -1.04914
H    -3.70532   0.97896  -0.90585
C    -3.57354  -1.15887  -0.75371
C    -3.88937  -2.04272   0.26873
H    -3.76676  -1.74875   1.30097
C    -4.36567  -3.31030  -0.02306
H    -4.60768  -3.98752   0.78286
C    -4.52896  -3.70994  -1.33707
H    -4.89748  -4.69952  -1.56217
C    -4.21616  -2.83316  -2.36335
H    -4.33892  -3.13864  -3.39197
C    -3.74205  -1.56841  -2.07223
H    -3.49460  -0.88569  -2.87245
C     0.17837   1.19654   2.93267
H     0.32759   2.22677   3.25834
H     0.81900   1.01011   2.06809
H     0.44587   0.51361   3.74127
C     0.88692  -0.58069  -1.88330
H     0.69323   0.22787  -2.58504
C     1.91340  -0.41067  -0.97722
H     2.45187   0.53339  -1.00042
C     2.66391  -1.56079  -0.34354
H     3.70183  -1.26313  -0.18204
H     2.67489  -2.40228  -1.03767
C     2.05451  -1.98833   1.00448
H     2.24796  -3.05173   1.18319
H     2.54542  -1.43405   1.80767
C     0.56770  -1.72478   1.10007
H     0.21454  -1.71154   2.13110
C    -0.36890  -2.10017   0.12044
H    -1.37566  -2.31391   0.46936
C     0.00210  -2.85397  -1.14027
H    -0.83542  -3.49388  -1.42579
H     0.85101  -3.50658  -0.93063
C     0.32495  -1.91392  -2.31706
H     1.02957  -2.39764  -3.00200
H    -0.59314  -1.72863  -2.87856
O    -0.00233   1.58183  -0.46937
