20

Pt    0.00000   0.00000   0.00000
Cl    2.01145  -0.81764  -0.54477
N    -1.85915   0.62499   0.44737
N    -2.93699   0.11777  -0.15704
N    -0.74400  -1.95368  -0.60070
H    -0.22355  -2.05176  -1.47435
H    -0.34663  -2.62821   0.05046
C    -2.28654   1.44721   1.39251
H    -1.58856   1.98594   2.00285
C    -3.68388   1.47059   1.39966
H    -4.31896   2.03886   2.04593
C    -4.06368   0.60857   0.39835
H    -5.03522   0.32496   0.04750
C    -2.81899  -0.81170  -1.24787
H    -2.18915  -0.36511  -2.02832
H    -3.81701  -0.99052  -1.65089
C    -2.18006  -2.13356  -0.78987
H    -2.63337  -2.43415   0.15912
H    -2.39620  -2.90788  -1.53583
O     0.61847   1.47004   0.42305
