45

Pd    0.00000   0.00000   0.00000
Cl   -0.41576  -2.15302  -0.36490
N     0.25851   1.99995   0.19122
N    -1.53729   0.56967  -1.19152
C     0.92991   2.64402  -0.76193
H     1.62604   2.04473  -1.34359
C     0.77123   3.99732  -0.99229
H     1.33454   4.48664  -1.77028
C    -0.12109   4.70532  -0.19806
H    -0.27695   5.76183  -0.35287
C    -0.78905   4.03491   0.81239
H    -1.46713   4.55876   1.46837
C    -0.57278   2.67350   0.99299
C    -1.21638   1.90604   2.10880
H    -1.14500   2.49972   3.02399
H    -0.64869   0.97024   2.25700
C    -1.27101   0.89383  -2.45573
H    -0.37045   0.45765  -2.88089
C    -2.09467   1.72026  -3.19622
H    -1.84926   1.95897  -4.21838
C    -3.23995   2.22644  -2.59582
H    -3.90345   2.88074  -3.14004
C    -3.52709   1.85640  -1.29308
H    -4.42361   2.20561  -0.80436
C    -2.65689   1.01352  -0.61107
C    -2.94404   0.52817   0.77807
H    -2.31771  -0.36110   0.97017
H    -3.99360   0.22669   0.83014
C    -2.70749   1.57390   1.88839
H    -3.23660   2.49646   1.62018
C    -3.27682   1.03662   3.18134
C    -4.30723   1.69641   3.83311
H    -4.70973   2.60906   3.41498
C    -4.82985   1.20062   5.01539
H    -5.63336   1.73138   5.50589
C    -4.33470   0.03227   5.57483
C    -3.29944  -0.62680   4.91903
H    -2.90089  -1.53801   5.34017
C    -2.77602  -0.13509   3.74024
H    -1.97206  -0.67144   3.25481
C    -4.88875  -0.51703   6.85312
H    -5.71609   0.08881   7.21383
H    -4.11528  -0.54126   7.61987
H    -5.24059  -1.53711   6.70603
O     1.30049  -0.31506   0.96538
