43

Pt    0.00000   0.00000   0.00000
N     1.00840  -0.08278   1.74291
N    -1.05120   0.14679  -1.71333
Br    2.37140  -0.19335  -1.05561
C     0.33640   1.98905   0.25560
C    -0.03858   3.02270  -0.58131
H    -0.59553   2.83097  -1.48935
C     0.30686   4.32845  -0.26613
H     0.01534   5.13171  -0.92645
C     1.02488   4.60414   0.88693
H     1.29144   5.62286   1.12468
C     1.40844   3.57956   1.72797
H     1.97441   3.80424   2.61883
C     1.06895   2.26144   1.41965
C     1.45450   1.10222   2.21313
C     2.25107   1.14447   3.35650
H     2.61088   2.09237   3.72090
C     2.58793  -0.02761   4.00436
H     3.20997  -0.00528   4.88585
C     2.12193  -1.23212   3.49660
H     2.36619  -2.17252   3.96200
C     1.33511  -1.21339   2.36134
H     0.96414  -2.13620   1.93185
C    -1.84125   0.33209   0.79618
C    -2.18153   0.40560   2.13343
H    -1.43094   0.30247   2.90633
C    -3.50378   0.60555   2.50119
H    -3.76431   0.65810   3.54781
C    -4.48796   0.73481   1.53380
H    -5.51525   0.88848   1.82781
C    -4.16053   0.65908   0.19541
H    -4.93563   0.75305  -0.54956
C    -2.83364   0.45589  -0.18650
C    -2.38217   0.32298  -1.56514
C    -3.21427   0.33166  -2.68373
H    -4.27607   0.46358  -2.55739
C    -2.67633   0.15417  -3.94310
H    -3.31355   0.15164  -4.81406
C    -1.30664  -0.03158  -4.06697
H    -0.84289  -0.18384  -5.02738
C    -0.53079  -0.02957  -2.92393
H     0.54004  -0.18294  -2.98355
O    -0.38569  -1.60023  -0.11409
