46

Pt    0.00000   0.00000   0.00000
N    -1.28216   0.88761   1.52514
N     1.78825   0.22958   1.14819
C    -1.77633  -0.19127  -0.92051
C    -2.08836  -0.86742  -2.09335
H    -1.32208  -1.40903  -2.62813
C    -3.37848  -0.86463  -2.59873
H    -3.59778  -1.39675  -3.51338
C    -4.38877  -0.18585  -1.93582
H    -5.39558  -0.19102  -2.32699
C    -4.10372   0.49770  -0.77224
H    -4.89881   1.01253  -0.25322
C    -2.80505   0.50737  -0.25860
C    -2.46033   1.21797   0.97148
C    -3.26549   2.19577   1.56258
H    -4.19262   2.48641   1.09636
C    -2.85066   2.81347   2.72469
H    -3.45751   3.57964   3.18438
C    -1.63862   2.44104   3.28976
H    -1.27892   2.89500   4.19932
C    -0.88783   1.47715   2.64305
H     0.06624   1.16134   3.04889
C     0.07606  -1.81234   0.86293
C    -0.81928  -2.86402   0.72226
H    -1.64506  -2.77482   0.03006
C    -0.67520  -4.03241   1.45296
H    -1.38537  -4.83719   1.32758
C     0.37675  -4.17223   2.34466
H     0.48878  -5.08233   2.91564
C     1.28416  -3.14490   2.50102
H     2.09947  -3.26565   3.19910
C     1.14752  -1.96400   1.76818
C     2.08356  -0.84712   1.89530
C     3.21852  -0.83157   2.71026
H     3.47047  -1.68940   3.31220
C     4.02351   0.29150   2.73814
H     4.90401   0.31241   3.36370
C     3.69111   1.38799   1.95429
H     4.29716   2.27945   1.95035
C     2.55528   1.30660   1.16764
H     2.23894   2.12240   0.52997
C     1.12391  -0.66333  -1.60059
H     2.18824  -0.56124  -1.37244
H     0.89387  -0.01544  -2.44830
H     0.93262  -1.70086  -1.87665
O     0.08643   1.55732  -0.53832
