49

Ni    0.00000   0.00000   0.00000
P    -0.24837  -1.21607   1.83114
O     1.34632  -1.53787   2.19612
N     1.85320  -0.32100   0.31725
C     0.64393   0.95992  -1.54437
C    -0.03675   1.63850  -2.55136
H    -1.11565   1.69407  -2.54957
C     0.64671   2.26244  -3.58640
H     0.08439   2.77849  -4.35115
C     2.02922   2.23014  -3.64735
H     2.55267   2.71891  -4.45609
C     2.73631   1.56694  -2.66572
H     3.81571   1.53560  -2.70500
C     2.06157   0.93536  -1.62322
C     2.72895   0.20953  -0.55691
C     4.09616   0.02355  -0.37427
H     4.80017   0.44756  -1.07042
C     4.53640  -0.71217   0.71219
H     5.59260  -0.86789   0.87173
C     3.62131  -1.25298   1.59954
H     3.92022  -1.83302   2.45653
C     2.26987  -1.02815   1.35861
C    -0.83945  -2.98510   1.58620
C    -0.28000  -3.32283   0.19706
H     0.81022  -3.36803   0.21281
H    -0.58937  -2.56858  -0.53714
H    -0.65106  -4.28819  -0.14353
C    -2.36405  -3.01449   1.53250
H    -2.69868  -3.95749   1.10249
H    -2.75047  -2.20373   0.91639
H    -2.79394  -2.93177   2.52717
C    -0.30447  -3.97681   2.61293
H    -0.49787  -4.99182   2.26718
H    -0.79109  -3.85308   3.57606
H     0.76917  -3.86340   2.74892
C    -0.74426  -0.43994   3.46825
C    -2.24753  -0.17629   3.47553
H    -2.49730   0.49644   4.29475
H    -2.81184  -1.09390   3.61371
H    -2.56898   0.28732   2.54427
C    -0.31782  -1.24215   4.69181
H     0.71232  -1.58064   4.60079
H    -0.95968  -2.10687   4.83752
H    -0.39413  -0.61627   5.58036
C    -0.00484   0.90419   3.43237
H    -0.23492   1.44161   2.50614
H     1.07467   0.76285   3.49522
H    -0.31200   1.53278   4.26651
O    -1.60178   0.29614  -0.26290
