31

Pd    0.00000   0.00000   0.00000
Cl    4.38128  -0.75394  -0.78667
C     1.71924   0.00198  -0.95284
C     2.71838  -0.58030  -0.26182
C     2.37618  -1.11473   1.04403
C     3.26634  -1.75383   1.90804
C     2.81509  -2.22280   3.12635
C     1.47975  -2.04646   3.46388
C     0.64387  -1.40323   2.56587
N     1.07078  -0.94897   1.39238
C     1.65059   0.63293  -2.25387
C     2.65754   0.79758  -3.18778
C     2.39984   1.43757  -4.40495
C     1.15277   1.91909  -4.70725
C     0.08968   1.77770  -3.79062
C    -1.21907   2.24735  -4.03166
C    -2.18273   2.05917  -3.07725
C    -1.85508   1.40330  -1.88145
N    -0.64353   0.95381  -1.62780
C     0.34372   1.12809  -2.55842
H     4.29661  -1.87301   1.61243
H     3.49339  -2.71913   3.80377
H     1.09092  -2.39933   4.40502
H    -0.40639  -1.24323   2.78888
H     3.64975   0.43080  -2.98076
H     3.20534   1.55104  -5.11533
H     0.96340   2.41235  -5.64897
H    -1.43975   2.74711  -4.96350
H    -3.19314   2.40526  -3.22636
H    -2.60503   1.24256  -1.11355
O    -1.44479  -0.00067   0.79692
