30

Hg    0.00000   0.00000   0.00000
Br   -2.31585   0.00354  -0.68576
Cl    3.29250  -6.62475   0.50938
O     0.47381   1.00474   4.52395
O     0.68313  -1.61841   2.17118
O    -0.30774   0.84227   2.44292
N     0.30492  -2.52395  -0.31295
C     2.21328  -3.43560   2.65256
H     2.43385  -3.07929   3.64530
C    -0.11998   2.30014   4.64082
H     0.10866   2.64286   5.64592
H    -1.19837   2.23610   4.48848
H     0.30530   2.97510   3.89660
C     1.68673  -4.46886   0.09874
C     1.10097  -3.24128   0.51194
C     2.55667  -5.13988   0.98974
C     1.04372  -0.94732   3.35276
H     2.12404  -0.74558   3.37971
H     0.75547  -1.51527   4.24671
C     0.32140   0.39211   3.36885
C     2.81950  -4.62468   2.22948
H     3.49027  -5.13986   2.89848
C     1.36232  -4.94719  -1.18624
H     1.79126  -5.87774  -1.52574
C     0.01272  -3.00729  -1.49718
H    -0.65017  -2.41041  -2.11197
C     1.35616  -2.74922   1.82652
C     0.50718  -4.22746  -1.97544
H     0.22297  -4.57080  -2.95699
O     1.60487   0.34762   0.16144
