37

Mo    0.00000   0.00000   0.00000
Cl   -0.62844   1.83468   1.37063
Cl    0.87305   1.10704  -1.59076
O    -0.48110  -1.19687   1.37420
O    -0.40268  -2.94069   2.79092
N     1.09396  -2.81491  -0.22177
N     2.26917  -1.48953   1.34246
N     0.47831  -1.84694  -0.93882
N     1.88825  -0.25402   0.94387
C     1.37896  -2.60550   1.17183
C     0.00737  -2.24912   1.89893
C     0.32977  -2.31603  -2.17482
C     2.88956   0.57221   1.23448
C     0.84775  -3.61762  -2.24172
C     3.92447  -0.15082   1.84550
C     1.31513  -3.91945  -0.98201
C     3.50044  -1.45902   1.91684
C    -0.28863  -1.51205  -3.25406
C     2.83778   2.01746   0.91475
C     1.92238  -5.16350  -0.44950
C     4.15405  -2.65593   2.50030
H     1.81924  -3.50680   1.60448
H     0.86255  -4.25690  -3.09995
H     4.85504   0.24100   2.20032
H     0.42987  -0.79171  -3.64966
H     1.83611   2.40223   1.10628
H    -0.61104  -2.16161  -4.06286
H     3.55955   2.55781   1.52063
H    -1.14394  -0.96250  -2.86071
H     3.07387   2.18164  -0.13818
H     1.31864  -5.57430   0.35940
H     4.31393  -3.42563   1.74482
H     3.54756  -3.07715   3.30178
H     2.92929  -4.98150  -0.07309
H     1.98102  -5.90095  -1.24440
H     5.11840  -2.37200   2.91068
O    -1.55816   0.00448  -0.54278
