60

C     1.11827  -3.00467  -0.20992
H     1.10826  -2.96267  -1.28955
C     1.53809  -4.13515   0.47792
H     1.86227  -4.99325  -0.08979
C     1.55181  -4.19245   1.87607
H     1.88302  -5.08424   2.38576
C     1.12439  -3.06510   2.55083
C     0.72644  -1.99075   1.75743
C     0.96734  -2.67955   4.01579
C    -0.03517  -3.60571   4.72808
H    -0.15253  -3.26411   5.75854
H     0.38353  -4.61380   4.75686
C    -1.40358  -3.64817   4.05088
H    -1.82810  -2.64210   4.01468
H    -1.29290  -3.99617   3.02115
C    -2.36470  -4.57416   4.79254
H    -2.49199  -4.21859   5.81779
H    -1.93409  -5.57721   4.84235
C    -3.72775  -4.64477   4.10909
H    -4.15927  -3.64242   4.05943
H    -3.59872  -4.99854   3.08356
C    -4.69197  -5.57286   4.84392
H    -4.25753  -6.57385   4.89879
H    -4.82756  -5.21517   5.86726
C    -6.04577  -5.64584   4.14869
H    -6.71815  -6.30878   4.68798
H    -5.93332  -6.02167   3.13400
H    -6.50221  -4.65965   4.09866
C     2.32105  -2.71625   4.74786
H     2.16518  -2.40240   5.78204
H     2.67907  -3.74775   4.76312
C     3.38235  -1.82519   4.10520
H     3.03771  -0.78847   4.09720
H     3.53837  -2.12853   3.06726
C     4.70753  -1.91046   4.85893
H     4.55323  -1.60532   5.89671
H     5.05140  -2.94760   4.86793
C     5.78328  -1.02935   4.22943
H     5.93841  -1.33393   3.19186
H     5.44135   0.00812   4.22037
C     7.10772  -1.11740   4.98409
H     7.44919  -2.15514   4.99255
H     6.95202  -0.81262   6.02159
C     8.17916  -0.23711   4.35321
H     9.11205  -0.31378   4.90653
H     7.86515   0.80428   4.35192
H     8.36398  -0.53902   3.32471
C     0.31167  -0.90672   2.58058
C     0.43107  -1.25715   3.92408
C     0.05708  -0.29153   4.83874
H     0.10680  -0.45047   5.90508
C    -0.39804   0.92647   4.32130
H    -0.70074   1.70909   4.99927
C    -0.47421   1.16543   2.95588
H    -0.82536   2.10684   2.55845
Cl    0.16798  -0.37870  -2.18104
N     0.70423  -1.90847   0.43061
N    -0.11595   0.24034   2.06182
Pt    0.00000   0.00000   0.00000
O    -0.56221   1.53177  -0.24512
