26

Hg    0.00000   0.00000   0.00000
I    -0.67237   1.17106   2.23014
S    -2.47660  -0.93767  -1.20039
S    -0.99215   1.98245  -2.21346
N    -3.29972  -0.48631  -3.63725
C    -3.11844   0.01568  -4.98211
H    -2.82318   1.06913  -4.92851
H    -4.07016  -0.03770  -5.51083
N    -0.47660   0.22965  -4.14156
C    -1.21049   0.58828  -3.09525
C    -2.35463  -0.27816  -2.72185
C    -0.80520  -0.98575  -4.85547
H    -0.98543  -1.78593  -4.13065
H     0.05356  -1.27438  -5.46108
C    -2.04665  -0.78515  -5.73699
H    -2.43318  -1.76337  -6.02342
H    -1.78802  -0.24160  -6.64609
C    -4.44091  -1.30340  -3.30798
H    -4.12334  -2.31999  -3.06259
H    -5.13112  -1.32727  -4.14604
H    -4.94532  -0.89548  -2.42956
C     0.64041   1.00544  -4.61275
H     0.48381   1.28638  -5.65520
H     1.55704   0.41915  -4.52868
H     0.73389   1.90499  -4.00741
O     1.04019  -0.80387  -0.99714
