36

Au    0.00000   0.00000   0.00000
P    -2.06379  -0.54941   0.69137
N    -3.72052   1.05957   2.19679
N    -3.36257   1.85807   0.16184
C    -3.12338   0.84829   1.04350
C    -4.37646   2.23080   2.06116
H    -4.95407   2.63455   2.86799
C    -4.16955   2.74118   0.80688
H    -4.52230   3.63755   0.33943
C    -2.88340   1.93811  -1.18723
H    -1.81668   1.69134  -1.21842
H    -3.02688   2.94904  -1.56500
H    -3.42125   1.23579  -1.83072
C    -2.14541  -1.47581   2.23807
C    -1.68702  -0.83441   3.38647
H    -1.36459   0.19570   3.32719
C    -1.66406  -1.51502   4.58766
H    -1.32107  -1.01711   5.48233
C    -2.07514  -2.83820   4.64315
H    -2.05411  -3.36963   5.58297
C    -2.50457  -3.48322   3.49557
H    -2.81329  -4.51760   3.53891
C    -2.53657  -2.80856   2.28749
H    -2.86620  -3.31373   1.38961
C    -3.06038  -1.49528  -0.49265
C    -2.45449  -2.04933  -1.61400
H    -1.39181  -1.90993  -1.76716
C    -3.21414  -2.77040  -2.51913
H    -2.74549  -3.20427  -3.38960
C    -4.57354  -2.93214  -2.30746
H    -5.16501  -3.49352  -3.01516
C    -5.17977  -2.37544  -1.19046
H    -6.23983  -2.50484  -1.02998
C    -4.42850  -1.65649  -0.28059
H    -4.88497  -1.22119   0.59862
O     1.48212   0.44675  -0.57116
