66

Pt    0.00000   0.00000   0.00000
N    -0.12561   0.46631   1.92481
H     0.58234   0.95196   2.46760
N    -2.24888  -0.28019   1.72883
N    -2.64365  -1.40809  -0.21355
N     0.29211  -0.49939  -2.99946
C    -1.85856  -0.63925   0.41587
C    -1.28810   0.30841   2.48012
C    -1.57618   0.77079   3.84955
C    -2.73621   1.48641   4.13671
H    -3.44796   1.69542   3.35247
C    -2.96410   1.94646   5.41974
H    -3.86251   2.50504   5.63461
C    -2.04582   1.69416   6.42615
H    -2.23102   2.05010   7.42827
C    -0.88752   0.98910   6.14461
H    -0.16791   0.79356   6.92523
C    -0.64754   0.53545   4.86099
H     0.25179  -0.02345   4.64372
C    -3.48921  -0.71576   2.25684
C    -4.66644  -0.38253   1.59954
H    -4.62097   0.21429   0.70250
C    -5.87906  -0.81574   2.10267
H    -6.79391  -0.55583   1.59137
C    -5.92333  -1.57498   3.26024
H    -6.87204  -1.90864   3.65266
C    -4.74815  -1.91146   3.91049
H    -4.77727  -2.51077   4.80815
C    -3.52989  -1.49154   3.40862
H    -2.61126  -1.76705   3.90579
C    -2.34804  -1.95139  -1.44928
C    -1.36951  -2.95103  -1.57025
C    -0.58515  -3.40014  -0.36985
H     0.10546  -2.60952  -0.03591
H     0.00032  -4.28541  -0.60535
H    -1.25796  -3.62750   0.45612
C    -1.15555  -3.52650  -2.81284
H    -0.41080  -4.30328  -2.91569
C    -1.87421  -3.12094  -3.92270
H    -1.68096  -3.56778  -4.88647
C    -2.84531  -2.14369  -3.79176
H    -3.41849  -1.83757  -4.65586
C    -3.09807  -1.55579  -2.56405
C    -4.13147  -0.48193  -2.40429
H    -4.84139  -0.76632  -1.62880
H    -4.66812  -0.31499  -3.33517
H    -3.65752   0.45108  -2.09700
C     0.07001  -0.36284  -1.85914
C     0.65394  -0.85902  -4.25283
C     1.70881  -1.77031  -4.40286
C     2.41065  -2.29846  -3.19460
H     1.71661  -2.86497  -2.57416
H     2.78774  -1.47822  -2.58361
H     3.24033  -2.94022  -3.47799
C     2.05608  -2.14719  -5.68989
H     2.86263  -2.85083  -5.83395
C     1.38629  -1.63113  -6.78649
H     1.67089  -1.93825  -7.78174
C     0.35908  -0.71826  -6.61570
H    -0.15117  -0.31393  -7.47742
C    -0.02412  -0.31293  -5.34792
C    -1.11793   0.68101  -5.12091
H    -1.87900   0.25699  -4.46736
H    -1.57591   0.97303  -6.06209
H    -0.72215   1.57084  -4.63132
O     1.58737   0.44769  -0.04844
