61

Ti    0.00000   0.00000   0.00000
Cl   -0.58224   0.85065  -2.03559
O     0.44437  -0.87185   1.46715
O    -1.16492   0.99113   0.84050
N    -1.57304  -1.53439  -0.40346
N     1.39804   1.75768   0.17621
C     0.55619  -2.18101   1.63095
C    -0.53949  -3.00148   1.31008
C    -0.45574  -4.37558   1.46873
C     0.69873  -4.97168   1.95169
C     1.77753  -4.15427   2.26734
C     1.73227  -2.78011   2.11880
C    -1.79404  -2.33392   0.81720
C    -1.17574  -2.42898  -1.49609
C    -2.84510  -0.90008  -0.76422
C     0.79718  -6.45988   2.10539
C     2.92155  -1.92138   2.42316
C    -1.13937   1.97216   1.72142
C    -0.25035   3.04207   1.52300
C    -0.20424   4.08688   2.43128
C    -1.03175   4.10732   3.54377
C    -1.90148   3.04007   3.73881
C    -1.97110   1.97673   2.85785
C     0.61792   3.00861   0.29686
C     2.21853   1.57857   1.37642
C     2.29536   1.91398  -0.97466
C    -0.99325   5.23986   4.52553
C    -2.89103   0.81661   3.09593
H    -1.30952  -4.98930   1.21469
H     2.68775  -4.60657   2.63576
H    -2.16756  -1.65165   1.59200
H    -2.56320  -3.09845   0.61958
H    -1.98361  -3.13951  -1.72254
H    -0.28205  -2.98982  -1.21416
H    -0.95457  -1.84126  -2.39042
H    -2.74240  -0.37798  -1.71619
H    -3.12274  -0.17125  -0.00045
H    -3.63918  -1.65496  -0.85545
H     1.33840  -6.88897   1.26181
H    -0.19043  -6.91289   2.14137
H     1.33637  -6.71858   3.01399
H     3.34432  -1.55944   1.48434
H     3.68294  -2.48695   2.95382
H     2.62440  -1.06224   3.02380
H     0.48331   4.90405   2.26088
H    -2.54371   3.04005   4.60864
H    -0.01414   3.09067  -0.59836
H     1.30892   3.86660   0.31927
H     2.84765   0.69701   1.24700
H     1.57856   1.43832   2.25123
H     2.86091   2.45654   1.54117
H     2.94678   2.78847  -0.83504
H     1.71109   2.04660  -1.88653
H     2.91312   1.02331  -1.09176
H    -1.98474   5.67379   4.64451
H    -0.31135   6.01840   4.19426
H    -0.66630   4.88582   5.50278
H    -3.55874   0.68055   2.24482
H    -3.48932   0.97323   3.98967
H    -2.30398  -0.09559   3.21984
O     1.21875  -0.83150  -0.73876
