62

Ir    0.00000   0.00000   0.00000
C     1.74344   0.00000   1.03116
N     2.52706   1.10111   1.23975
C     3.83496   0.71455   1.47023
C     4.99029   1.44368   1.64162
H     5.05116   2.51657   1.63467
C     6.17363   0.72069   1.82371
N     7.39824   1.22269   2.00185
S     8.43496   0.00000   2.15477
C     2.10715   2.50639   1.40574
C     2.75987   3.37683   0.32195
H     3.79748   3.11836   0.14353
H     2.71047   4.42161   0.61662
H     2.22181   3.26337  -0.61571
C     2.50006   2.94668   2.82552
H     2.02181   2.28932   3.54864
H     2.14577   3.95870   3.00115
H     3.56895   2.92624   3.00205
C     0.59769   2.70349   1.30589
H     0.21556   2.41338   0.32971
H     0.38014   3.75931   1.44891
H     0.07487   2.14087   2.07273
C    -1.72577  -0.69071  -1.11600
H    -2.35863  -1.19706  -0.39185
C    -1.38054  -1.51260  -2.33559
H    -1.71379  -2.53765  -2.16938
H    -1.95056  -1.12303  -3.18465
C     0.12494  -1.52291  -2.68691
H     0.48322  -2.55363  -2.67648
H     0.26679  -1.14738  -3.70540
C     0.99257  -0.70398  -1.75505
H     1.94550  -1.17975  -1.53105
N     2.52707  -1.10111   1.23975
C     3.83496  -0.71454   1.47023
C     4.99029  -1.44367   1.64162
H     5.05116  -2.51657   1.63468
C     6.17363  -0.72069   1.82371
N     7.39824  -1.22268   2.00186
C     2.10716  -2.50638   1.40574
C     2.75987  -3.37683   0.32195
H     3.79749  -3.11836   0.14354
H     2.71048  -4.42161   0.61662
H     2.22181  -3.26337  -0.61571
C     2.50006  -2.94668   2.82552
H     2.02181  -2.28931   3.54864
H     2.14577  -3.95869   3.00115
H     3.56895  -2.92623   3.00206
C     0.59769  -2.70349   1.30589
H     0.21556  -2.41338   0.32971
H     0.38014  -3.75931   1.44891
H     0.07488  -2.14087   2.07273
C    -1.72576   0.69072  -1.11599
H    -2.35862   1.19707  -0.39184
C    -1.38054   1.51261  -2.33558
H    -1.71377   2.53767  -2.16936
H    -1.95056   1.12306  -3.18464
C     0.12494   1.52290  -2.68691
H     0.48323   2.55362  -2.67649
H     0.26679   1.14737  -3.70540
C     0.99257   0.70398  -1.75505
H     1.94550   1.17975  -1.53105
O    -0.90612  -0.00000   1.37893
