48

Pt    0.00000   0.00000   0.00000
Cl   -1.24795  -1.06055   1.65398
N     0.52603   1.39385   1.32541
C    -0.39916   2.11530   1.95490
H    -1.43283   1.89673   1.71485
C    -0.07161   3.08789   2.88219
H    -0.85203   3.65251   3.36697
C     1.26442   3.31598   3.17350
H     1.55233   4.06604   3.89433
C     2.22178   2.55825   2.51686
H     3.27323   2.69952   2.71015
C     1.81147   1.61008   1.59724
H     2.53062   1.01188   1.05036
P    -0.63902  -1.61774  -1.44463
C    -0.38089  -1.37274  -3.22664
C    -1.41545  -1.09371  -4.11025
H    -2.43510  -1.04806  -3.75354
C    -1.13668  -0.87519  -5.44865
H    -1.94279  -0.65942  -6.13487
C     0.16883  -0.92605  -5.90624
H     0.38172  -0.74864  -6.95017
C     1.20387  -1.19726  -5.02444
H     2.22335  -1.22810  -5.37926
C     0.93199  -1.41829  -3.68890
H     1.73200  -1.61715  -2.98861
C    -2.42526  -1.89772  -1.29667
C    -3.19415  -0.74208  -1.17302
H    -2.68993   0.22164  -1.16937
C    -4.56567  -0.83037  -1.04101
H    -5.16121   0.06539  -0.94269
C    -5.17501  -2.07611  -1.02247
H    -6.24683  -2.14968  -0.91127
C    -4.41159  -3.22594  -1.13101
H    -4.88857  -4.19477  -1.10163
C    -3.03583  -3.14274  -1.26802
H    -2.44034  -4.04171  -1.33503
C     0.17162  -3.21490  -1.16293
C     0.93209  -3.37650  -0.01049
H     1.01460  -2.54728   0.68525
C     1.56621  -4.58067   0.23784
H     2.15541  -4.70651   1.13405
C     1.44516  -5.62396  -0.66536
H     1.93843  -6.56522  -0.47216
C     0.69851  -5.46176  -1.82246
H     0.61360  -6.27482  -2.52878
C     0.06477  -4.25961  -2.07724
H    -0.50420  -4.12163  -2.98716
O     0.87623   0.79641  -1.14911
