49

Cu    0.00000   0.00000   0.00000
N     1.04663  -0.43943  -1.63668
N     2.26932   1.50686  -1.82778
N     3.33993  -0.52473  -2.20301
N    -1.37244  -1.61563  -0.72264
C     2.18716   0.13348  -1.84175
C     1.02980   2.25354  -1.86216
H     0.36336   1.80355  -2.59395
H     1.25915   3.27736  -2.15701
H     0.53146   2.26508  -0.88545
C     3.24905   2.11295  -0.94192
H     4.11281   1.46576  -0.82393
H     2.80666   2.28521   0.04555
H     3.57099   3.06882  -1.35773
C     3.75237  -1.74669  -1.55551
H     3.17074  -1.90220  -0.65004
H     4.80460  -1.66361  -1.26876
H     3.64479  -2.61632  -2.21282
C     4.32164   0.07787  -3.07068
H     3.90154   0.97053  -3.52584
H     4.58427  -0.63461  -3.85855
H     5.24013   0.34667  -2.53684
C     0.73532  -1.79019  -2.02569
H     1.16451  -2.52935  -1.33929
H     1.11998  -2.00438  -3.03101
C    -0.79387  -1.92822  -2.02784
H    -1.17707  -1.20452  -2.74603
H    -1.06107  -2.93642  -2.37131
C    -1.21689  -2.70722   0.25395
H    -0.19516  -3.07649   0.11607
C    -1.31789  -2.18415   1.68703
H    -0.74238  -1.26253   1.79086
H    -0.91795  -2.92156   2.37853
H    -2.34663  -1.97926   1.97206
C    -2.16514  -3.89768   0.07151
H    -2.10820  -4.30487  -0.93567
H    -3.19343  -3.61904   0.28556
H    -1.87978  -4.68513   0.76513
C    -2.72535  -1.03620  -0.79698
H    -3.17646  -1.19050   0.18578
C    -3.65473  -1.65669  -1.84957
H    -3.65102  -2.74086  -1.81048
H    -3.37885  -1.34800  -2.85487
H    -4.67095  -1.31575  -1.66560
C    -2.64180   0.47274  -1.02701
H    -2.04537   0.93670  -0.24162
H    -3.63722   0.91002  -1.00865
H    -2.18381   0.69787  -1.98715
O     0.18514   1.01136   1.29050
