47

Cu    0.00000   0.00000   0.00000
N     1.16939   0.25642  -1.62372
N     3.57761   0.17701  -1.91507
N     2.43209  -1.64693  -1.32051
N    -1.29910   1.51777  -0.96625
C     2.32033  -0.32379  -1.61461
C     3.99070   1.53383  -1.63627
H     3.38349   2.24719  -2.18577
H     5.02272   1.64131  -1.96936
H     3.94384   1.76755  -0.56559
C     4.57812  -0.82935  -1.58401
H     5.04081  -0.60146  -0.61446
H     5.35784  -0.84719  -2.34946
C     3.77802  -2.12583  -1.51585
H     3.85168  -2.70070  -2.45088
H     4.08055  -2.77039  -0.68653
C     1.34912  -2.58773  -1.35212
H     0.41074  -2.04371  -1.26878
H     1.43902  -3.27265  -0.50794
H     1.35436  -3.16222  -2.28631
C     0.91011   1.58502  -2.10655
H     1.35919   1.74617  -3.09603
H     1.29413   2.35613  -1.42343
C    -0.61297   1.72607  -2.24193
H    -0.84394   2.70381  -2.68440
H    -0.93849   0.94960  -2.93453
C    -1.24124   2.70941  -0.09764
H    -0.20946   3.07218  -0.17124
C    -2.16388   3.86621  -0.49769
H    -2.01541   4.16283  -1.53405
H    -1.93904   4.72681   0.12813
H    -3.20863   3.60658  -0.34708
C    -1.48753   2.35170   1.36750
H    -0.88361   1.49345   1.65446
H    -2.53152   2.11731   1.55989
H    -1.21064   3.19171   1.99984
C    -2.64122   0.92194  -1.11118
H    -3.18172   1.15746  -0.19073
C    -2.53611  -0.60100  -1.20112
H    -2.05425  -0.99981  -0.31018
H    -1.96188  -0.90319  -2.07483
H    -3.52842  -1.04013  -1.27570
C    -3.47467   1.43495  -2.29386
H    -3.47079   2.51781  -2.36032
H    -4.50416   1.10874  -2.16401
H    -3.11660   1.03148  -3.23823
O     0.29982  -0.85169   1.38103
