47

Cu    0.00000   0.00000   0.00000
N    -0.04452   1.94048  -0.55168
C     0.70632   2.77943   0.07814
N     1.52742   3.78567  -0.40745
C     2.24815   3.70984  -1.65784
H     2.80642   4.63849  -1.77527
H     1.56517   3.61985  -2.49718
H     2.95679   2.87265  -1.67630
N     0.73865   2.80472   1.43482
C     2.30540   4.33777   0.69414
H     2.35983   5.42562   0.60278
H     3.32603   3.93281   0.67957
N    -1.21832  -0.35476  -1.80878
C     1.55189   3.88166   1.94016
H     2.21592   3.52345   2.73173
H     0.91908   4.68119   2.35196
C    -0.21483   2.17674   2.30426
H     0.30500   1.59201   3.06495
H    -0.84040   1.50922   1.71452
H    -0.84464   2.92856   2.79161
C    -0.30671   1.96072  -1.96522
H     0.56490   1.63547  -2.55027
H    -0.59263   2.96614  -2.30269
C    -1.48886   1.01812  -2.23302
H    -2.32711   1.39259  -1.64506
H    -1.75601   1.08057  -3.29637
C    -0.33893  -1.07791  -2.74684
H     0.45560  -0.36868  -3.00483
C     0.33134  -2.27705  -2.07618
H     0.73505  -1.99310  -1.10539
H     1.15133  -2.63157  -2.69587
H    -0.36093  -3.10280  -1.93141
C    -0.99438  -1.52903  -4.05676
H    -1.47687  -0.70142  -4.57263
H    -1.72448  -2.31499  -3.88162
H    -0.22533  -1.92658  -4.71509
C    -2.43114  -1.09102  -1.40382
H    -2.18059  -2.15262  -1.47139
C    -2.76805  -0.79562   0.05833
H    -3.63535  -1.37547   0.36546
H    -2.99228   0.25909   0.20466
H    -1.93264  -1.06815   0.70162
C    -3.67797  -0.84235  -2.26386
H    -3.46544  -0.91391  -3.32532
H    -4.10986   0.13554  -2.06471
H    -4.42733  -1.59170  -2.01893
O     0.82204  -0.78090   1.19873
