45

Au    0.00000   0.00000   0.00000
P     1.60007   1.60220   0.13029
C     3.24690   1.08167  -0.44099
C     3.77852  -0.13561   0.00811
C     5.00911  -0.54374  -0.48892
C     5.70524   0.22352  -1.40608
C     5.17820   1.42765  -1.84063
C     3.95309   1.85198  -1.36262
C     3.05242  -0.98661   1.00028
C     1.90832   2.24106   1.80549
C     0.82259   2.61173   2.61157
C     1.07658   3.04022   3.90764
C     2.36628   3.10468   4.40457
C     3.43461   2.74301   3.60184
C     3.20541   2.31000   2.30981
C    -0.58263   2.55500   2.10369
C     1.25902   3.10071  -0.84353
C     0.83833   2.97579  -2.17519
C     0.52085   4.12921  -2.88010
C     0.61351   5.37918  -2.29421
C     1.03631   5.49666  -0.98120
C     1.35377   4.36213  -0.25909
C     0.72891   1.64019  -2.83862
H     5.42629  -1.48063  -0.14881
H     6.65983  -0.11683  -1.77813
H     5.71776   2.03642  -2.55039
H     3.54171   2.79231  -1.70238
H     0.24600   3.32774   4.53609
H     2.53701   3.44027   5.41636
H     4.44478   2.79686   3.97888
H     4.04014   2.02778   1.68333
H     0.19489   4.04210  -3.90658
H     0.35928   6.26069  -2.86324
H     1.11863   6.46840  -0.51815
H     1.68359   4.45480   0.76634
H     2.58743  -0.37704   1.77631
H     2.26557  -1.55950   0.50351
H     3.73166  -1.69215   1.47334
H    -1.23842   3.17229   2.71341
H    -0.64221   2.89878   1.07010
H    -0.95697   1.52909   2.14092
H    -0.20684   1.15260  -2.55480
H     0.73518   1.74595  -3.92109
H     1.55248   0.98671  -2.54778
O    -1.16399  -1.16545  -0.09680
