45

Au    0.00000   0.00000   0.00000
P     1.40031  -1.32019  -1.17058
C     0.67665  -2.88225  -1.73279
C    -0.24422  -3.49804  -0.88899
C    -0.82426  -4.69574  -1.25212
C    -0.50606  -5.30007  -2.46543
C     0.40997  -4.67518  -3.30337
C     1.00044  -3.47715  -2.94720
C    -1.15960  -6.58769  -2.85746
C     2.89242  -1.82066  -0.27391
C     3.45088  -0.89135   0.59910
C     4.58878  -1.20702   1.31529
C     5.18273  -2.45719   1.18578
C     4.61063  -3.38338   0.31785
C     3.47695  -3.07609  -0.40790
C     6.41304  -2.81351   1.95947
C     2.02218  -0.56501  -2.69409
C     1.06285  -0.13045  -3.60637
C     1.44876   0.49638  -4.77354
C     2.79449   0.71796  -5.04705
C     3.74371   0.29454  -4.12195
C     3.36929  -0.33933  -2.95272
C     3.22580   1.40244  -6.30605
H    -0.50150  -3.02521   0.05093
H    -1.53811  -5.16853  -0.59355
H     0.66511  -5.13176  -4.24913
H     1.71015  -3.00118  -3.61019
H     2.98329   0.07932   0.71206
H     5.01556  -0.47808   1.98883
H     5.06134  -4.36019   0.21413
H     3.04140  -3.80747  -1.07468
H     0.01371  -0.29315  -3.39025
H     0.69803   0.82499  -5.47762
H     4.79166   0.46747  -4.32195
H     4.11867  -0.66026  -2.24219
H    -2.20920  -6.41444  -3.09471
H    -0.67784  -7.02256  -3.72933
H    -1.11974  -7.30245  -2.03760
H     6.25654  -3.73464   2.51850
H     7.24998  -2.97647   1.28091
H     6.68020  -2.02274   2.65523
H     3.79825   2.29876  -6.07147
H     3.86612   0.74545  -6.89362
H     2.36851   1.68528  -6.91093
O    -1.02998   0.95831   0.86213
