69

Pt    0.00000   0.00000   0.00000
Cl   -1.18633  -0.01486  -2.01234
S    -6.13864  -3.89039   1.58700
O    -5.03647  -2.70118   1.64444
O    -5.53261  -5.09742   1.11063
O    -7.31380  -3.38627   0.96976
O    -4.92561  -3.23770  -0.95292
O    -3.71922  -5.11035  -1.16599
N     1.18240   1.35698  -0.87049
C    -3.69591  -3.01453   1.64196
C    -3.16069  -3.67176   0.60352
C    -1.72532  -4.08355   0.46576
C    -0.89883  -2.96395  -0.20988
C    -0.73889  -1.85750   0.79178
C    -1.70197  -0.88154   0.99488
C    -1.94168  -0.29833   2.35940
C    -3.11784  -1.02189   3.03685
C    -3.03374  -2.55411   2.91271
C    -6.40877  -4.04478   3.34338
C    -5.65533  -4.95158   4.06141
C    -5.81718  -5.02746   5.43395
C    -6.72418  -4.19796   6.08791
C    -7.46929  -3.29067   5.34028
C    -7.31246  -3.20942   3.96727
C    -6.87756  -4.26903   7.57553
C    -4.04739  -3.96377  -0.56127
C    -4.58638  -5.50339  -2.21915
C     0.90062   2.65582  -0.73890
C     1.70084   3.61589  -1.33667
C     2.81032   3.23424  -2.08193
C     3.07069   1.87343  -2.19545
C     2.23892   0.95204  -1.58022
C    -0.29952   3.00340   0.07846
C     3.67596   4.24632  -2.75649
C     2.46320  -0.52120  -1.66940
H    -1.68891  -4.97594  -0.15761
H    -1.29035  -4.32081   1.43710
H     0.07253  -3.36796  -0.50188
H    -1.42290  -2.61762  -1.10125
H    -0.09369  -2.11595   1.63453
H    -2.55032  -0.83022   0.31272
H    -2.18440   0.76558   2.29656
H    -1.04381  -0.41002   2.97101
H    -3.13035  -0.74143   4.09152
H    -4.05863  -0.69814   2.59027
H    -1.99852  -2.88310   2.95930
H    -3.58382  -3.00063   3.74633
H    -4.96678  -5.59046   3.53085
H    -5.23699  -5.73730   6.00500
H    -8.17734  -2.64517   5.83855
H    -7.88168  -2.52026   3.36495
H    -6.12618  -3.64117   8.05508
H    -6.73879  -5.28695   7.93122
H    -7.85809  -3.91566   7.88313
H    -5.59691  -5.63893  -1.82921
H    -4.19051  -6.44005  -2.60405
H    -4.60612  -4.73920  -2.99933
H     1.45693   4.66012  -1.21869
H     3.92043   1.52743  -2.76298
H    -1.18238   2.51522  -0.34388
H    -0.46351   4.07705   0.10361
H    -0.15984   2.63848   1.09950
H     3.30937   4.42132  -3.76830
H     4.70204   3.89431  -2.82704
H     3.65623   5.19281  -2.22241
H     2.57428  -0.93562  -0.66354
H     3.35192  -0.75167  -2.25016
H     1.59486  -0.99034  -2.13959
O     0.98237   0.14778   1.31742
