31

Zn    0.00000   0.00000   0.00000
Cl   -2.10421  -0.31118   0.60671
N     1.31971  -1.47126   0.77141
N     0.88341   1.08050   1.66791
O    -0.37141  -2.22824  -1.19436
O     0.88364   4.61778   1.20117
C    -1.13912  -2.86401  -2.06859
H    -1.78623  -2.26922  -2.68418
C    -0.93681  -4.21747  -1.99876
H    -1.41971  -4.97165  -2.58512
C     0.03210  -4.41127  -1.00051
H     0.44122  -5.34256  -0.66471
C     0.35156  -3.15317  -0.52753
C     1.25438  -2.70721   0.48206
H     1.87436  -3.46259   0.97222
C     2.22618  -0.94621   1.74077
H     3.05473  -0.48013   1.19464
H     2.62663  -1.72278   2.40641
C     1.50973   0.14150   2.55346
H     0.71242  -0.33169   3.13681
H     2.22043   0.62507   3.23759
C     1.07964   2.32882   1.82261
H     1.75917   2.70299   2.59729
C     0.44852   3.33897   1.04230
C    -0.59044   3.31678   0.13222
H    -1.15737   2.46030  -0.17406
C    -0.77728   4.64577  -0.28182
H    -1.49707   5.00562  -0.98735
C     0.15008   5.38664   0.39787
H     0.36920   6.43700   0.38786
O     0.64144   0.62529  -1.38566
