57

Ru    0.00000   0.00000   0.00000
Cl   -1.50706   1.03131   1.50649
Cl    1.60390  -0.92154  -1.54650
P    -1.52786  -1.55732  -0.75295
N     1.41433   1.28868   0.47540
N     0.82975  -0.97671   1.44629
C     1.56995   2.51129  -0.02062
H     0.74908   2.90875  -0.60414
C     2.70862   3.26539   0.18755
H     2.78389   4.25152  -0.24142
C     3.74331   2.72678   0.94208
H     4.65506   3.27978   1.10535
C     3.57549   1.46916   1.48898
H     4.35349   1.02478   2.08810
C     2.80839  -1.19490   2.77968
H     3.77919  -0.81706   3.05541
C     2.31640  -2.34844   3.35831
H     2.90030  -2.89527   4.08125
C     1.03966  -2.77035   3.00335
H     0.59414  -3.64294   3.45286
C     0.34076  -2.05801   2.05293
H    -0.65676  -2.36136   1.75960
C     2.04224  -0.51194   1.83827
C     2.39235   0.77246   1.25200
C    -1.48854  -1.49994  -2.58334
C    -1.25885  -0.27526  -3.20158
C    -1.19148  -0.14109  -4.57397
H    -1.00818   0.82543  -5.01578
C    -1.35051  -1.27075  -5.36133
H    -1.28861  -1.18298  -6.43517
C    -1.57963  -2.50295  -4.77241
H    -1.69972  -3.38194  -5.38765
C    -1.65034  -2.61764  -3.39451
H    -1.82481  -3.58095  -2.93762
C    -1.36661  -3.34899  -0.47140
C    -0.08376  -3.88356  -0.58273
H     0.74146  -3.22732  -0.82892
C     0.12171  -5.23553  -0.38670
H     1.11566  -5.64778  -0.47828
C    -0.94756  -6.06016  -0.07114
H    -0.78739  -7.11693   0.08459
C    -2.22214  -5.53069   0.04460
H    -3.05513  -6.17383   0.28873
C    -2.43705  -4.17736  -0.15361
H    -3.43281  -3.76595  -0.06415
C    -3.28435  -1.22759  -0.41411
C    -3.66983  -1.24625   0.92515
H    -2.93776  -1.47782   1.68696
C    -4.97110  -0.94623   1.27657
H    -5.26325  -0.95551   2.31602
C    -5.89418  -0.61665   0.29650
H    -6.90970  -0.37233   0.57149
C    -5.51317  -0.58933  -1.03412
H    -6.23008  -0.32526  -1.79804
C    -4.21094  -0.89051  -1.39405
H    -3.92145  -0.86121  -2.43628
O    -0.63935   0.79166  -1.29884
