34

Zn    0.00000   0.00000   0.00000
Cl    0.44855  -2.09395  -0.72768
N     1.90401   0.75035  -0.73185
N     1.37726  -0.14546   1.66472
N    -1.36668  -0.51085   1.68708
C     2.09154   1.16654  -1.96906
H     1.21168   1.53791  -2.47696
C     3.33446   1.13093  -2.58665
H     3.44998   1.47589  -3.60141
C     4.40715   0.62912  -1.86987
H     5.38841   0.56634  -2.31640
C     4.20819   0.20323  -0.56557
H     5.03392  -0.19540   0.00062
C     2.92994   0.28252  -0.01841
C     2.60640  -0.16250   1.35318
C     3.74138  -0.59303   2.23218
H     4.52992   0.15607   2.21619
H     4.14762  -1.53295   1.86024
H     3.42303  -0.73418   3.26044
C     0.80384  -0.58274   2.89654
H     0.62880   0.30535   3.51438
H     1.43937  -1.27679   3.45830
C    -0.52708  -1.28452   2.59450
H    -0.29604  -2.22862   2.09666
H    -1.04820  -1.49429   3.54071
C    -1.93679   0.65985   2.34472
H    -2.52792   1.21578   1.62021
H    -1.14680   1.31647   2.70087
H    -2.57641   0.37013   3.18844
C    -2.45096  -1.34886   1.17993
H    -3.09100  -1.70800   1.99556
H    -2.03435  -2.20128   0.64677
H    -3.05229  -0.76820   0.48306
O    -0.97653   1.09068  -0.76113
