30

Zn    0.00000   0.00000   0.00000
Cl    0.99755  -0.25109  -1.93611
N    -0.81339  -1.87099   0.44829
N    -1.63244  -3.83732  -0.14044
H    -2.12890  -4.53163  -0.67355
N    -2.18884   0.28724  -0.64516
H    -2.52896   1.22609  -0.82966
H    -2.59077  -0.06580   0.21790
C    -0.43249  -2.78882   1.39299
C     0.31951  -2.63086   2.55142
H     0.70880  -1.66257   2.82322
C     0.53266  -3.75628   3.31882
H     1.11290  -3.67727   4.22515
C     0.01737  -5.00405   2.95588
H     0.21334  -5.85548   3.58959
C    -0.73412  -5.17600   1.81046
H    -1.13067  -6.14010   1.53198
C    -0.95194  -4.04940   1.03311
C    -1.51992  -2.51953  -0.45824
C    -2.08292  -1.93736  -1.66207
C    -2.27066  -2.73879  -2.79123
H    -2.01678  -3.78747  -2.74858
C    -2.72138  -2.20438  -3.98007
H    -2.84575  -2.83899  -4.84330
C    -2.98808  -0.84717  -4.06527
H    -3.32321  -0.41671  -4.99603
C    -2.82240  -0.04108  -2.95628
H    -3.02104   1.01879  -3.02466
C    -2.37840  -0.56574  -1.74799
O     0.07335   0.96846   1.33387
