30

Re    0.00000   0.00000   0.00000
N    -1.18757   1.74015  -0.19166
O    -1.53932  -1.08309   2.45341
C     1.40161  -1.33927   0.25372
O     2.29149  -2.02825   0.44307
C    -0.96003  -1.03661  -1.33820
C    -2.36617   1.94240   0.39447
H    -2.85934   1.06623   0.79543
O    -1.52881  -1.61758  -2.14690
C     0.72776   2.48326  -1.39424
C    -1.06492   4.08318  -0.65823
H    -0.53949   4.92709  -1.07444
C     1.51445   3.44624  -2.01835
H     1.23667   4.48759  -2.01499
C    -2.83043   5.59092   0.07339
C    -0.54062   2.79626  -0.72635
C    -2.95757   3.18363   0.50899
H    -3.90765   3.29940   1.00495
C    -2.28509   4.28727  -0.02203
C    -0.98831  -0.75027   1.51092
N     1.07974   1.18102  -1.38397
N    -3.27354   6.64440   0.14096
C     2.19975   0.81668  -2.00539
H     2.43747  -0.23916  -1.98629
C     3.04007   1.70456  -2.64501
H     3.94399   1.36336  -3.12300
C     2.69472   3.05838  -2.64433
N     4.17835   4.80613  -3.78615
C     3.51920   4.02296  -3.27358
O     0.79700   0.99022   1.05202
