43

Au    0.00000   0.00000   0.00000
P    -0.88222   1.97767  -0.76756
C     0.52217   1.04464   1.66618
C     0.11758   2.40657   1.72258
C    -0.60445   3.02743   0.67063
C    -1.03778   4.32967   0.76634
H    -1.60950   4.78207  -0.03098
C    -0.74438   5.08704   1.90472
H    -1.08869   6.10883   1.96538
C    -0.02097   4.53342   2.92440
H     0.21906   5.11434   3.80341
C     0.42218   3.19675   2.86693
C     1.15645   2.62455   3.92453
H     1.38703   3.23098   4.78832
C     1.56143   1.32557   3.84456
H     2.12969   0.87502   4.64507
C     1.23856   0.54549   2.72185
H     1.57785  -0.47707   2.72282
C     0.06686   2.71647  -2.17328
H    -0.21608   2.10984  -3.04580
C     0.78473  -1.73247   0.75364
H     0.59612  -2.56947   0.08769
H     0.34581  -1.98278   1.71508
H     1.86184  -1.65746   0.87527
C     1.54899   2.50148  -1.87301
H     2.15972   2.90399  -2.67903
H     1.77897   1.43983  -1.77461
H     1.83036   3.00086  -0.94412
C    -0.23432   4.18580  -2.44592
H     0.26361   4.48870  -3.36574
H     0.14182   4.81036  -1.63738
H    -1.30125   4.36513  -2.56561
C    -2.68803   2.19340  -1.12884
H    -2.91759   3.24746  -0.91474
C    -3.41427   1.30829  -0.11625
H    -4.48860   1.47704  -0.15924
H    -3.07169   1.52009   0.89935
H    -3.22840   0.25606  -0.33163
C    -3.09525   1.86382  -2.55938
H    -2.59945   2.51123  -3.27952
H    -4.17040   2.00237  -2.66330
H    -2.86435   0.83138  -2.80846
O    -0.39569  -0.68181  -1.44951
