49

Au    0.00000   0.00000   0.00000
P    -0.78115  -2.02752  -0.78797
C     0.64132   1.85381   0.62066
H     0.80309   2.52111  -0.22552
H    -0.15985   2.30243   1.21129
C     1.89328   1.78976   1.48409
H     2.70758   1.29773   0.94302
H     1.69122   1.20030   2.38176
C     2.34645   3.18635   1.90568
H     2.58263   3.79319   1.03320
H     3.23257   3.12333   2.53341
H     1.55970   3.68496   2.46728
C     1.11521   0.05860  -1.70681
C     0.87046  -0.96162  -2.66683
C    -0.05316  -2.01463  -2.43670
C    -0.32017  -2.95943  -3.40026
H    -1.03844  -3.74615  -3.21973
C     0.33814  -2.91367  -4.63325
H     0.11319  -3.65774  -5.38298
C     1.27057  -1.94279  -4.87262
H     1.80089  -1.91323  -5.81374
C     1.56564  -0.95737  -3.90923
C     2.54050   0.03083  -4.15041
H     3.06671   0.02678  -5.09391
C     2.81195   0.96338  -3.19415
H     3.57186   1.71387  -3.35595
C     2.09531   0.97450  -1.98616
H     2.34817   1.74670  -1.27839
C    -2.57980  -2.36320  -1.08938
H    -2.62701  -3.09090  -1.91190
C    -3.17040  -1.03532  -1.56231
H    -4.19705  -1.16936  -1.89778
H    -2.58715  -0.62493  -2.38991
H    -3.17242  -0.31081  -0.74801
C    -3.32588  -2.91362   0.11977
H    -3.26153  -2.23474   0.96602
H    -2.93846  -3.88322   0.42507
H    -4.37765  -3.03388  -0.13517
C    -0.08096  -3.49631   0.09367
H    -0.62219  -3.52676   1.05058
C    -0.25413  -4.81932  -0.64294
H     0.34104  -4.83067  -1.55471
H    -1.29559  -5.00637  -0.89799
H     0.08856  -5.63292  -0.00542
C     1.39251  -3.19784   0.36264
H     1.85140  -4.02026   0.90840
H     1.50492  -2.29202   0.96012
H     1.93520  -3.05958  -0.57403
O    -0.81214  -0.25430   1.41360
