69

Y     0.00000   0.00000   0.00000
Cl    2.19703  -1.23916  -0.07897
N     1.27760   0.49619   2.18476
N    -1.09772  -0.77977   2.37526
N    -1.67047  -0.34968  -2.73229
N    -0.42344  -0.09831  -2.26668
N    -3.05570   0.53212  -0.83489
N    -2.10945   0.90397   0.05510
N    -2.45861  -1.90730  -0.94286
N    -1.25897  -2.02074  -0.32840
C     2.42725   1.13602   2.10073
H     2.51174   1.85720   1.29521
C     3.49430   0.91462   2.97903
H     4.41489   1.45962   2.84436
C     3.35165  -0.00495   3.98694
H     4.15558  -0.21411   4.67821
C     2.12944  -0.68553   4.12011
C     1.11627  -0.39665   3.18031
C    -0.15116  -1.06856   3.28677
C    -0.36493  -1.98543   4.34224
C    -1.62810  -2.59386   4.42552
H    -1.82436  -3.30844   5.21226
C    -2.59373  -2.26224   3.50663
H    -3.57863  -2.69982   3.54652
C    -2.27869  -1.34695   2.49796
H    -3.02519  -1.06494   1.76648
C     0.68736  -2.25912   5.26137
H     0.50270  -2.97583   6.04817
C     1.88539  -1.63767   5.15081
H     2.68392  -1.84781   5.84717
C     0.36806   0.11659  -3.31929
C    -0.38578   0.00204  -4.48969
H    -0.03968   0.12008  -5.49648
C    -1.67153  -0.29395  -4.07777
C    -2.87413  -0.52146  -4.92263
H    -3.27280  -1.52211  -4.76483
H    -2.60441  -0.41191  -5.96952
H    -3.65594   0.19731  -4.68400
C     1.81429   0.43030  -3.17975
H     2.30924  -0.31823  -2.55833
H     1.94122   1.40154  -2.69733
H     2.28842   0.45523  -4.15792
C    -2.57114   1.96479   0.71969
C    -3.84501   2.28346   0.24781
H    -4.47796   3.08349   0.57445
C    -4.11620   1.35468  -0.74250
C    -5.33509   1.24586  -1.58670
H    -5.08403   1.38086  -2.63708
H    -6.04664   2.01373  -1.29526
H    -5.80278   0.26943  -1.47454
C    -1.77011   2.64287   1.77396
H    -0.89479   3.11315   1.32106
H    -1.42111   1.92118   2.51496
H    -2.36793   3.40668   2.26553
C    -1.20121  -3.23571   0.21700
C    -2.39452  -3.91625  -0.03802
H    -2.65200  -4.91059   0.26645
C    -3.16601  -3.04098  -0.77946
C    -4.53729  -3.25758  -1.31227
H    -5.21742  -2.48690  -0.95396
H    -4.90126  -4.22910  -0.98838
H    -4.53754  -3.22884  -2.40025
C    -0.01441  -3.73771   0.96133
H     0.83514  -3.07120   0.82024
H     0.25574  -4.72756   0.59711
H    -0.23303  -3.82126   2.02707
B    -2.83920  -0.66717  -1.78469
H    -3.82217  -0.88125  -2.39748
O     0.55883   1.52305  -0.30090
