59

Fe    0.00000   0.00000   0.00000
P    -1.93205  -0.77854   0.65489
C     1.39952  -1.92425   1.66970
C     0.85191  -2.88449  -0.36031
C     2.05762  -3.07659   2.07578
H     2.51259  -3.11509   3.05181
C     2.12688  -4.14966   1.20728
H     2.64780  -5.05237   1.48698
C     1.50829  -4.06488  -0.02873
H     1.53167  -4.89529  -0.71395
C     0.28372   0.29169   1.92350
C     1.26158  -0.72711   2.53777
H     2.22201  -0.20931   2.62261
H     0.94910  -1.00144   3.54971
O     0.15415  -2.67804  -1.48956
O    -0.13683   1.18600   2.61763
N     0.82781  -1.82972   0.46310
C    -2.74847  -1.90203  -0.53702
C    -2.87365  -1.39387  -1.82843
H    -2.51903  -0.39131  -2.03020
C    -3.25747  -3.16327  -0.25298
H    -3.22447  -3.55558   0.75310
C    -3.83485  -3.91890  -1.26090
H    -4.22295  -4.90144  -1.03332
C    -3.92361  -3.42079  -2.54897
H    -4.36952  -4.01799  -3.33044
C    -3.45563  -2.14565  -2.82915
H    -3.54621  -1.74092  -3.82633
C    -3.28898   0.40837   0.94868
C    -5.61679   1.00930   0.88122
H    -6.63841   0.75632   0.63743
C    -5.31806   2.24773   1.42480
H    -6.10644   2.96433   1.60135
C    -2.99539   1.64969   1.50979
H    -1.97774   1.89233   1.77995
C    -4.61077   0.08991   0.64498
H    -4.85587  -0.87360   0.22075
C    -4.00775   2.56256   1.74491
H    -3.76990   3.52285   2.17734
C    -1.92031  -1.71811   2.22248
C    -1.35776  -2.99371   2.27383
H    -1.02408  -3.47596   1.36479
C    -2.33172  -1.11366   3.40755
H    -2.75000  -0.11804   3.38592
C    -1.22694  -3.65433   3.48114
H    -0.79205  -4.64331   3.50548
C    -2.19525  -1.77722   4.61343
H    -2.51609  -1.29713   5.52587
C    -1.64207  -3.04637   4.65458
H    -1.53149  -3.56009   5.59788
C    -0.65146   1.58091  -0.37600
C    -0.05338  -0.22970  -1.78207
O    -1.04056   2.58831  -0.75247
O    -0.01374  -0.18232  -2.92358
C     0.15449  -3.65308  -2.50845
H     1.16953  -3.87373  -2.84881
H    -0.41507  -3.21430  -3.32571
H    -0.33847  -4.57222  -2.17777
O     1.50545   0.65220  -0.17536
