69

Pt    0.00000   0.00000   0.00000
Cl   -1.42344  -1.66120   0.78505
N    -1.48868   0.97751  -0.84945
N    -2.93210   2.37816  -2.41203
N    -3.53148   4.06512  -5.35836
N    -3.13717   4.15725  -6.62253
O    -3.34978   2.30365  -1.07186
C    -2.51213   1.53960  -0.34429
C    -2.89315   1.44430   1.09840
H    -3.04578   0.38707   1.32909
H    -3.82513   1.99024   1.24950
C    -1.78467   1.98907   2.00067
H    -0.85895   1.42838   1.82688
H    -2.06584   1.87300   3.04327
H    -1.59941   3.04124   1.79832
C    -3.50848   3.22352  -3.17433
C    -4.62289   4.13054  -2.77545
H    -5.36090   3.57476  -2.19965
H    -5.07644   4.57351  -3.65503
H    -4.22846   4.91977  -2.13537
C    -2.96656   3.26335  -4.52618
C    -1.81428   2.37538  -4.82063
C    -1.88390   1.45381  -5.86195
H    -2.78033   1.39207  -6.46363
C    -0.82921   0.58904  -6.10062
H    -0.89853  -0.12722  -6.90657
C     0.30105   0.63191  -5.30290
H     1.11538  -0.05387  -5.48402
C     0.38520   1.55485  -4.27244
H     1.25434   1.59195  -3.63384
C    -0.66187   2.42650  -4.03877
H    -0.58328   3.15166  -3.24334
H    -1.38479   1.17411  -1.85379
H    -2.23370   3.77940  -6.89781
H    -3.44596   5.00037  -7.08008
N     1.48918  -0.97795   0.84835
C     2.51115  -1.54048   0.34072
O     3.34976  -2.30579   1.06583
N     2.93481  -2.38154   2.40676
C     3.51286  -3.22761   3.16705
C     4.62643  -4.13426   2.76503
H     5.36252  -3.57844   2.18683
H     5.08273  -4.57680   3.64340
H     4.23034  -4.92389   2.12647
C     2.97377  -3.26881   4.51998
N     3.54140  -4.07026   5.35061
N     3.14982  -4.16347   6.61556
H     2.24641  -3.78695   6.89283
H     3.46063  -5.00639   7.07211
C     1.82089  -2.38252   4.81706
C     1.89087  -1.46167   5.85899
H     2.78815  -1.39910   6.45933
C     0.83533  -0.59856   6.09995
H     0.90491   0.11722   6.90630
C    -0.29611  -0.64237   5.30394
H    -1.11102   0.04228   5.48667
C    -0.38059  -1.56462   4.27287
H    -1.25059  -1.60223   3.63549
C     0.66736  -2.43461   4.03693
H     0.58866  -3.15919   3.24097
C     2.88962  -1.44427  -1.10265
H     3.04305  -0.38696  -1.33263
H     3.82078  -1.99109  -1.25592
C     1.77889  -1.98690  -2.00351
H     0.85418  -1.42499  -1.82801
H     2.05860  -1.87053  -3.04648
H     1.59238  -3.03894  -1.80158
H     1.38694  -1.17507   1.85274
O     1.01041   1.17984  -0.55638
