31

Cl    1.29117  -1.65389  -1.05788
Cl   -0.42244   0.83817  -2.15790
Cl   -1.75046   1.29495   0.83227
C    -2.79916  -1.11307  -2.44950
C    -0.86959  -3.89567  -1.27166
C    -0.24730  -4.88075  -2.05513
C     0.58342  -5.80720  -1.46577
C    -3.46542  -0.00549  -1.93042
C    -4.27795   0.73880  -2.76452
C    -4.42272   0.38418  -4.09672
C    -3.75980  -0.72558  -4.60275
C    -2.94519  -1.48196  -3.78454
C     0.77990  -5.79127  -0.09095
C     0.12810  -4.85268   0.69552
C    -0.69095  -3.90304   0.12041
H    -0.40307  -4.86364  -3.12162
H     1.08203  -6.54625  -2.07407
H    -3.35000   0.26512  -0.88869
H    -4.79430   1.59966  -2.37070
H    -5.05063   0.97569  -4.74520
H    -3.87068  -0.99330  -5.64200
H    -2.40504  -2.33514  -4.16043
H     1.43545  -6.51581   0.36775
H     0.26544  -4.84815   1.76557
H    -1.21445  -3.20139   0.75407
N    -1.95416  -1.86846  -1.60712
N    -1.65075  -3.01663  -1.96964
O    -1.56402  -1.29321  -0.49244
O     1.23858   1.02498   0.39191
W     0.00000   0.00000   0.00000
O    -0.00566  -0.86518   1.40496
