68

Rh    0.00000   0.00000   0.00000
C    -1.41557  -1.31434  -0.73629
N    -2.66711  -0.97194  -0.34865
N    -1.57448  -2.44081  -1.48036
C    -3.58670  -1.85657  -0.82188
H    -4.63643  -1.77901  -0.63095
N     1.79504   2.32087  -0.18031
C    -2.90130  -2.77688  -1.53489
H    -3.27956  -3.62457  -2.06251
N     1.96863   1.63937   1.86601
C    -2.93890   0.16146   0.52142
C    -1.72031   1.07856   0.41622
H    -1.68750   1.71850   1.30294
H    -1.89566   1.74370  -0.44311
C    -3.15129  -0.36497   1.94448
H    -3.35422   0.46038   2.62105
H    -3.99112  -1.05699   1.97439
H    -2.25924  -0.88607   2.28234
C    -4.20796   0.88471   0.05081
H    -4.15508   1.09338  -1.01633
H    -5.10383   0.29959   0.24846
H    -4.29902   1.82842   0.58300
C    -0.51313  -3.23689  -2.10869
C    -1.10913  -4.35495  -2.96893
H    -0.29244  -4.88898  -3.44798
H    -1.66421  -5.07275  -2.36868
H    -1.75344  -3.95637  -3.75065
C     0.32298  -2.32216  -3.00295
H     0.89072  -1.63259  -2.38672
H     1.02851  -2.91158  -3.58144
H    -0.31663  -1.76774  -3.68829
C     0.33800  -3.85726  -1.00066
H    -0.27675  -4.47808  -0.35139
H     0.80233  -3.07444  -0.40788
H     1.12432  -4.46851  -1.43351
C     1.28948   1.42171   0.70851
C     2.76419   3.08016   0.41801
H     3.30236   3.85777  -0.07945
C     2.87798   2.64890   1.68828
H     3.54414   2.99770   2.44582
C     1.34969   2.60375  -1.54593
C     0.75785   1.36151  -2.20730
H    -0.02577   0.88133  -1.57545
H     1.55276   0.64328  -2.40766
H     0.28781   1.63693  -3.15091
C     0.31460   3.73470  -1.47144
H    -0.54235   3.42505  -0.87818
H    -0.02423   4.00312  -2.46913
H     0.74992   4.61675  -1.00525
C     2.54449   3.04526  -2.40354
H     3.37838   2.36081  -2.26508
H     2.86847   4.05588  -2.16824
H     2.25805   3.02781  -3.45232
C     1.80907   0.94100   3.15091
C     2.25289  -0.51409   2.99698
H     1.69499  -1.00212   2.20367
H     3.30854  -0.55823   2.73848
H     2.09378  -1.05499   3.92566
C     0.34993   1.04788   3.60012
H     0.07502   2.09261   3.73301
H     0.21493   0.52870   4.54478
H    -0.30411   0.60521   2.85761
C     2.67681   1.58908   4.23639
H     3.73726   1.49499   4.01433
H     2.42404   2.63795   4.37969
H     2.49022   1.06984   5.17331
H    -0.17012  -0.75491   1.25340
O     1.45646  -0.70602  -0.32057
