45

Pt    0.00000   0.00000   0.00000
P     0.81268   1.34137   1.67956
N    -0.43046   2.19037   2.46257
N     1.37851   0.64059   3.13333
C     1.95774   2.73264   1.32005
H     1.45407   3.43011   0.65775
H     2.85051   2.36636   0.81815
H     2.21427   3.22639   2.25697
C    -0.66433   1.60963   3.77695
H    -1.28117   0.70560   3.71848
H    -1.15716   2.34550   4.41809
C     0.72736   1.26032   4.27689
H     1.25499   2.16790   4.60385
H     0.69925   0.55640   5.11412
C    -1.61897   2.43822   1.66893
H    -2.21004   1.52716   1.50340
H    -1.31054   2.83680   0.70191
H    -2.24242   3.17797   2.17395
C     2.80180   0.41935   3.27578
H     3.34201   1.32294   3.58418
H     3.20346   0.08675   2.31867
H     2.98170  -0.35594   4.02544
P    -0.74853  -1.81551   1.16947
N     0.39497  -2.77630   1.97116
N    -1.61200  -1.48873   2.60135
C    -1.68033  -3.13867   0.29947
H    -1.03405  -3.57554  -0.45672
H    -2.55047  -2.71953  -0.19966
H    -1.97024  -3.89895   1.02462
C     0.29385  -2.59950   3.41065
H     0.85839  -1.72415   3.75073
H     0.67282  -3.49240   3.91597
C    -1.19235  -2.39410   3.65893
H    -1.72571  -3.35446   3.61387
H    -1.38579  -1.93745   4.63408
C     1.73498  -2.80090   1.42275
H     2.33431  -1.94338   1.74585
H     1.66110  -2.78696   0.33427
H     2.23749  -3.72000   1.73167
C    -3.03682  -1.25577   2.49373
H    -3.61414  -2.18551   2.42378
H    -3.22323  -0.66307   1.59752
H    -3.38709  -0.69973   3.36719
Cl    0.68074   1.72315  -1.33809
O    -0.62424  -0.75884  -1.32551
