65

Pt    0.00000   0.00000   0.00000
Cl   -2.24561   0.20415   0.56483
P    -0.84014  -1.92307  -0.84317
P     2.25244  -0.08073  -0.18934
N    -1.50709  -3.23522  -0.02894
N     0.25066  -2.90711  -1.69650
N     2.91209  -1.58346  -0.62833
N     3.26327   0.75654  -1.24096
C    -0.79722  -4.47375  -0.31209
H    -1.50252  -5.31008  -0.28152
H    -0.00475  -4.66308   0.42548
C    -0.20074  -4.28416  -1.69937
H     0.64766  -4.95271  -1.87277
H    -0.95642  -4.47148  -2.47627
C    -2.04531  -3.11516   1.31031
H    -2.85933  -3.83267   1.43751
H    -2.43794  -2.10687   1.43567
H    -1.28857  -3.30665   2.07960
C     0.81344  -2.39736  -2.92235
H     1.72395  -2.95025  -3.16106
H     1.06798  -1.34862  -2.75797
H     0.12158  -2.46838  -3.77149
C    -2.10579  -1.46710  -2.07212
C    -1.93429  -0.25057  -2.72346
H    -1.11720   0.40184  -2.41465
C    -2.81066   0.13513  -3.71593
H    -2.68305   1.08696  -4.21167
C    -3.87390  -0.68803  -4.07895
C    -4.03612  -1.90203  -3.42348
H    -4.86433  -2.54389  -3.69038
C    -3.15946  -2.29491  -2.42770
H    -3.30200  -3.23059  -1.90598
C    -4.81607  -0.26432  -5.16386
H    -4.33939  -0.37562  -6.13847
H    -5.09004   0.78202  -5.04535
H    -5.71992  -0.86826  -5.15429
C     4.21310  -1.40882  -1.24228
H     4.44885  -2.27563  -1.86658
H     5.01159  -1.28972  -0.49530
C     4.05647  -0.14023  -2.06825
H     5.02158   0.32750  -2.28633
H     3.55589  -0.36053  -3.02150
C     2.75924  -2.68817   0.28573
H     2.89442  -3.62730  -0.25417
H     1.74297  -2.65029   0.68257
H     3.47051  -2.65254   1.12087
C     2.86359   1.99930  -1.86789
H     3.74607   2.62393  -2.02544
H     2.17638   2.51749  -1.20022
H     2.37432   1.83692  -2.83493
C     2.94218   0.26127   1.46228
C     4.21376   0.77421   1.66856
H     4.81496   1.06696   0.81950
C     4.68930   0.93378   2.95779
H     5.67694   1.34414   3.11699
C     3.91152   0.58206   4.05416
C     2.63694   0.06548   3.83615
H     2.02011  -0.20150   4.68246
C     2.15709  -0.09501   2.55303
H     1.15032  -0.47450   2.37627
C     4.41544   0.78294   5.45032
H     5.50003   0.85868   5.46802
H     4.10607  -0.03678   6.09554
H     4.00353   1.70481   5.86161
O     0.41443   1.52745   0.46653
