45

Pt    0.00000   0.00000   0.00000
Br   -1.34388  -1.51303  -1.31606
P     1.55551   1.21365   1.17489
C     3.22350   1.43186   0.41991
H     3.15381   2.14458  -0.39770
H     3.59097   0.48732   0.02213
H     3.90248   1.81681   1.18077
N     1.27580   2.79752   1.68693
C     1.15081   2.87651   3.13095
H     0.12192   2.69834   3.46337
H     1.46675   3.86784   3.46938
C     2.06964   1.78180   3.65064
H     3.11652   2.11879   3.62960
H     1.82194   1.49350   4.67649
N     1.84581   0.65690   2.75702
C     0.42190   3.66669   0.90698
H    -0.62976   3.60463   1.20597
H     0.50795   3.39110  -0.14448
H     0.75487   4.70061   1.02391
C     2.76794  -0.44906   2.90227
H     3.81820  -0.14112   2.82543
H     2.56125  -1.17623   2.11505
H     2.62638  -0.92659   3.87516
P    -1.38884  -0.51754   1.75463
C    -3.12304  -1.00622   1.36402
H    -3.12359  -2.01176   0.95143
H    -3.55678  -0.33199   0.62749
H    -3.70428  -0.99178   2.28593
N    -1.51513   0.69085   2.94694
C    -1.60548   0.08619   4.26617
H    -2.63891  -0.19512   4.51689
H    -1.24874   0.79265   5.02153
C    -0.72488  -1.15130   4.18623
H     0.33055  -0.87401   4.28697
H    -0.97623  -1.87960   4.96317
N    -1.01638  -1.71787   2.88187
C    -2.44401   1.77065   2.69021
H    -3.48726   1.48966   2.88122
H    -2.35016   2.06524   1.64353
H    -2.20381   2.62751   3.32487
C    -0.23295  -2.86402   2.47476
H     0.84467  -2.69806   2.57701
H    -0.45918  -3.08927   1.43216
H    -0.50985  -3.72667   3.08489
O     0.79002   0.49298  -1.36211
