39

C    -0.28598   2.04342  -0.22219
C     0.42427   4.11262   0.17362
H     1.01000   4.92952   0.53857
C     1.59705   0.76784   1.08093
C     2.69438   2.54718   1.83819
H     2.97156   3.56394   2.01985
C    -2.22591   2.74294  -1.62237
H    -2.58047   1.73012  -1.40061
C    -3.30434   3.75723  -1.26823
H    -3.58407   3.66784  -0.22092
H    -4.18460   3.57911  -1.87838
H    -2.94269   4.76541  -1.45120
C    -1.80039   2.83541  -3.08536
H    -1.42788   3.83372  -3.30312
H    -2.64975   2.62829  -3.72915
H    -1.01703   2.11250  -3.30545
C     3.07605  -0.89085   2.21450
H     2.55068  -1.59081   1.55587
C     2.66897  -1.13720   3.66439
H     3.16842  -0.42482   4.31685
H     2.95042  -2.14342   3.95945
H     1.59238  -1.03086   3.78450
C     4.57954  -1.01064   2.00452
H     4.83508  -0.83135   0.96239
H     4.90655  -2.01027   2.27403
H     5.10039  -0.28647   2.62529
C    -1.47041  -0.56131  -1.00204
C     0.36598  -1.81063   0.26438
I    -1.43903   0.19850   2.33011
N    -1.06302   2.96572  -0.78332
N    -0.63581   4.22050  -0.55363
N     0.67300   2.79448   0.40039
N     1.63719   2.13547   1.08749
N     2.64538   0.43991   1.83022
N     3.31233   1.51167   2.29629
O    -2.34219  -0.97343  -1.61294
O     0.52551  -2.93452   0.38604
Ru    0.00000   0.00000   0.00000
O     0.97245   0.09397  -1.32966
