42

Zn    0.00000   0.00000   0.00000
Cl   -1.01823   1.82701   0.75590
N     0.78811  -0.99279   1.79255
N     2.11704   0.08102  -0.18180
N     0.45151   1.24470  -1.86049
N     1.21205   3.36440  -3.38707
N    -2.95645   1.37753  -2.31958
N    -1.65355   3.99956  -5.10668
N     4.15744   3.02770  -1.42945
C     0.06104  -1.42509   2.80514
H    -0.96612  -1.08858   2.82799
C     0.57153  -2.25876   3.79025
H    -0.05588  -2.59404   4.60010
C     1.89885  -2.64348   3.70128
H     2.33740  -3.28982   4.44682
C     2.66172  -2.18561   2.63944
H     3.69942  -2.46560   2.56019
C     2.06882  -1.35735   1.68932
C     2.78785  -0.82529   0.51964
C     4.06119  -1.22847   0.12054
H     4.60949  -1.97464   0.67130
C     4.60514  -0.67701  -1.02966
H     5.57801  -0.99538  -1.37282
C     3.89317   0.27041  -1.74418
H     4.28366   0.69506  -2.65410
C     2.63606   0.63430  -1.26739
C     1.73185   1.57223  -1.93961
C    -0.46377   1.92539  -2.52892
C    -0.03763   2.93490  -3.42590
C     2.09804   2.76826  -2.60590
C    -1.83595   1.60592  -2.36755
C    -0.93092   3.52772  -4.35491
C     3.38778   3.44022  -2.43504
C     3.74813   4.49536  -3.27483
H     3.08709   4.79112  -4.07303
C     4.95500   5.13392  -3.04727
H     5.26599   5.95484  -3.67614
C     5.75247   4.70509  -1.99747
H     6.69728   5.17870  -1.78301
C     5.30131   3.64512  -1.22025
H     5.88199   3.27180  -0.38701
O    -0.30236  -1.39360  -0.83004
