62

Ir    0.00000   0.00000   0.00000
P     2.21774  -0.78451   0.35256
P    -0.15190  -2.27599   0.39940
C    -0.78380  -0.35937  -2.99739
C     3.24395  -0.56424   1.84099
C     1.68507  -2.58182   0.30028
H     1.91782  -2.99325  -0.68650
H     2.07366  -3.23664   1.08207
C     3.49775  -0.68479  -0.93734
C    -0.16002  -0.37022  -1.95946
O    -3.12028  -0.53489  -3.37660
C    -0.92615  -3.58291  -0.59006
C    -1.95103  -3.23306  -1.46171
H    -2.24602  -2.19664  -1.53728
C     3.31574   0.22890  -1.96783
H     2.42399   0.84068  -1.98439
C     5.40237  -0.45762  -2.92937
H     6.14870  -0.37063  -3.70529
C    -1.91022   0.41640  -0.42930
C     3.87446  -1.57539   2.55647
H     3.77798  -2.61041   2.25734
C     4.63556  -1.48430  -0.90175
H     4.77827  -2.18938  -0.09387
C    -0.51374  -4.90793  -0.48118
H     0.27860  -5.17341   0.20650
C    -3.60550   0.45513  -2.46635
H    -4.63619   0.14902  -2.25819
H    -3.61110   1.44309  -2.95395
C    -2.79346   0.51228  -1.25386
C     4.63152  -1.25802   3.67025
H     5.11983  -2.04552   4.22625
C     3.37444   0.76083   2.25270
H     2.86385   1.53794   1.69672
C     0.24490  -2.25886   3.14507
H     1.11586  -1.65303   2.92311
C    -0.55004  -2.74457   2.10978
C     4.27125   0.34020  -2.96281
H     4.13204   1.05012  -3.76413
C    -1.85834  -0.29811  -3.98651
H    -1.84702   0.69023  -4.47328
H    -1.76555  -1.08000  -4.74742
C     4.76443   0.06064   4.07341
H     5.35616   0.29894   4.94481
C     5.58317  -1.36999  -1.90059
H     6.46732  -1.99065  -1.87735
C    -2.00585  -3.76254   3.72538
H    -2.88899  -4.34061   3.95370
C    -1.12734  -5.87932  -1.24932
H    -0.81115  -6.90937  -1.16897
C    -2.55892  -4.21312  -2.22714
H    -3.35077  -3.94088  -2.90791
C    -1.69139  -3.48218   2.40786
H    -2.32460  -3.83323   1.60542
C    -2.14800  -5.53198  -2.12211
H    -2.62140  -6.29599  -2.72124
C    -1.19653  -3.30032   4.75064
H    -1.44586  -3.52117   5.77772
C    -0.07256  -2.54357   4.45918
H     0.55336  -2.16958   5.25637
C     4.13573   1.07131   3.36341
H     4.23440   2.09902   3.67967
O     0.38237   1.60083   0.11679
