50

Pd    0.00000   0.00000   0.00000
Cl   -1.12614  -1.20471  -1.48096
O     1.40846   0.38260   4.89545
H     2.27918   0.50145   4.49702
N     0.58557  -1.58856   1.21474
N     0.65573   0.99442   1.67846
N     0.50453   0.12190   2.73030
C     0.51860  -1.22607   2.48941
C     0.48586  -2.16713   3.54052
H     0.42565  -1.81704   4.55764
C     0.51984  -3.50611   3.25689
C     0.68126  -3.90988   1.90022
C     0.74390  -2.89997   0.90367
C     1.02338  -3.24948  -0.42991
H     1.12766  -2.44985  -1.15516
C     1.15848  -4.56525  -0.78189
H     1.36978  -4.83113  -1.80597
C     1.02922  -5.57235   0.18298
H     1.12287  -6.60691  -0.11150
C     0.80949  -5.25278   1.49639
H     0.74363  -6.03507   2.23618
C     0.42381  -4.51451   4.35486
H     0.29812  -4.02227   5.31555
H     1.32520  -5.12469   4.39116
H    -0.42445  -5.17620   4.18698
C     0.40680   0.81282   4.01830
C     0.51421   2.30249   3.58422
H     1.36435   2.80377   4.05849
C     0.70009   2.20951   2.09279
C    -0.97449   0.60668   4.67934
H    -1.53897  -0.15082   4.13484
H    -0.82903   0.25941   5.70276
C    -1.68972   1.93930   4.61684
H    -2.74798   1.90411   4.40378
C    -0.80205   2.96051   3.95723
H    -1.19319   3.67839   3.25116
C    -1.15183   3.09932   5.41608
C    -0.11299   2.90126   6.49510
H     0.48222   3.80689   6.60541
H     0.55413   2.07278   6.28535
H    -0.60657   2.70676   7.44570
C    -2.14030   4.19543   5.75641
H    -1.62139   5.14189   5.89797
H    -2.66711   3.95473   6.67796
H    -2.87394   4.32061   4.96439
C     0.90485   3.37374   1.20786
H     1.58622   3.11186   0.39933
H     1.28244   4.22397   1.76965
H    -0.03936   3.64153   0.72903
O    -0.46649   1.35122  -0.82406
