40

Ni    0.00000   0.00000   0.00000
S     1.59973   0.22439   1.47548
N    -1.41745  -0.54197  -1.29208
N     0.46044  -4.69160  -0.20808
N     0.14217  -1.82234   0.27997
N     0.95673  -2.35645   1.16528
N     2.60053  -1.90832   2.68959
C    -2.14999   0.20283  -2.10796
C    -3.02271  -0.34316  -3.03493
C    -3.11434  -1.72548  -3.13076
C    -2.35514  -2.50881  -2.28525
C    -1.51876  -1.89292  -1.34881
C    -0.66987  -2.59407  -0.41538
C    -0.70536  -4.05377  -0.23232
C    -1.92174  -4.71917  -0.05486
C    -1.90539  -6.08930   0.13369
C    -0.68693  -6.75115   0.14477
C     0.46469  -5.99627  -0.02470
C     1.72012  -1.47966   1.79440
C     3.50850  -1.04239   3.40850
C     4.20457  -1.98132   4.39132
C     4.17845  -3.32477   3.66151
C     2.80948  -3.31048   2.98841
H    -2.02640   1.27433  -2.01141
H    -3.60408   0.30126  -3.67357
H    -3.76607  -2.18427  -3.85938
H    -2.38460  -3.58487  -2.34811
H    -2.84933  -4.16723  -0.03783
H    -2.82911  -6.63200   0.27616
H    -0.63226  -7.81894   0.28759
H     1.44298  -6.46004  -0.01805
H     2.95858  -0.23411   3.89712
H     4.21839  -0.58837   2.70739
H     3.63066  -2.04868   5.31599
H     5.21250  -1.65109   4.63054
H     4.30163  -4.17124   4.33302
H     4.96559  -3.35646   2.90785
H     2.02647  -3.66239   3.67017
H     2.75257  -3.89825   2.07119
O    -0.14237   1.62456  -0.25108
