47

Zn    0.00000   0.00000   0.00000
Cl    0.19093   0.05549  -2.20628
N    -1.75236  -1.20693   0.06878
N    -1.49948   1.41079   0.31657
N    -2.70203   0.88085  -0.00526
C    -2.82591  -0.49036  -0.17365
C    -4.04457  -1.06430  -0.58064
H    -4.89703  -0.43574  -0.77007
C    -4.13418  -2.42227  -0.75474
C    -2.98040  -3.21386  -0.50248
C    -1.79590  -2.54823  -0.08412
C    -0.63115  -3.29211   0.17828
H     0.25242  -2.76075   0.50290
C    -0.63320  -4.65084   0.02201
H     0.26149  -5.22011   0.22196
C    -1.79548  -5.31417  -0.39706
H    -1.77881  -6.38657  -0.52141
C    -2.94355  -4.61434  -0.65299
H    -3.82988  -5.13603  -0.97835
C    -5.41464  -3.04680  -1.20139
H    -5.75903  -3.77365  -0.46694
H    -5.27020  -3.56660  -2.14745
H    -6.18579  -2.29243  -1.33415
C    -3.60910   1.88369  -0.11242
C    -2.95710   3.06888   0.15505
C    -1.61915   2.72546   0.41563
C    -5.05697   2.06419  -0.42118
H    -5.70490   1.51644   0.26811
H    -5.29681   1.75925  -1.44306
C    -5.22348   3.57753  -0.25982
H    -5.90139   4.06048  -0.94841
C    -3.88265   4.20898   0.09740
H    -3.54584   5.14676  -0.31693
C    -5.02329   4.20144   1.09474
C    -4.96783   3.35993   2.34824
H    -5.97076   3.03403   2.62220
H    -4.56844   3.95151   3.17004
H    -4.33898   2.48241   2.22959
C    -5.70994   5.53224   1.31917
H    -5.75158   6.11212   0.40060
H    -5.17479   6.11310   2.06833
H    -6.72750   5.37506   1.67340
C    -0.46379   3.59014   0.74378
H     0.35806   2.98049   1.11258
H    -0.74325   4.32807   1.49280
H    -0.13283   4.11841  -0.15007
O     1.06612  -0.14615   1.25081
