58

Ni    0.00000   0.00000   0.00000
P     0.73209   1.74994  -0.99719
C    -1.67774  -1.21071  -0.16781
C    -1.14059  -0.92410  -1.43619
C     0.11236  -1.65185  -1.57316
C     0.96060  -1.86507  -2.65417
C     2.08502  -2.64918  -2.46264
C     2.37474  -3.20590  -1.21969
C     1.54875  -3.00081  -0.12771
C     0.40492  -2.22733  -0.29753
C    -0.68033  -1.85067   0.60711
C    -0.87310  -2.42689   1.97498
C    -1.39958  -3.86076   1.86651
C     0.65564   1.75112  -2.81961
C    -0.57484   2.00605  -3.42101
C    -0.70844   1.93497  -4.79388
C     0.38278   1.59407  -5.57885
C     1.60466   1.32679  -4.98500
C     1.74332   1.39941  -3.60939
C     2.51352   1.95847  -0.68215
C     3.14303   3.19022  -0.56998
C     4.50843   3.24361  -0.34639
C     5.24589   2.07693  -0.23600
C     4.61798   0.84536  -0.33948
C     3.25552   0.78615  -0.55704
C    -0.01122   3.35414  -0.57878
C     0.13702   4.47000  -1.39846
C    -0.43730   5.67292  -1.03091
C    -1.16189   5.76899   0.14712
C    -1.31800   4.65819   0.95965
C    -0.74652   3.45167   0.59721
H    -2.67285  -0.96540   0.17372
H    -1.68499  -0.50838  -2.27250
H     0.74104  -1.43136  -3.61991
H     2.75022  -2.83583  -3.29320
H     3.26102  -3.81323  -1.10755
H     1.78828  -3.43112   0.83374
H    -1.58306  -1.81638   2.53725
H     0.07510  -2.42254   2.51615
H    -2.35867  -3.87657   1.35222
H    -1.53054  -4.28661   2.85850
H    -0.70292  -4.48310   1.30888
H    -1.42242   2.26536  -2.79912
H    -1.66381   2.13916  -5.25523
H     0.27760   1.53260  -6.65195
H     2.45410   1.05560  -5.59492
H     2.69615   1.18390  -3.14724
H     2.56972   4.10291  -0.64125
H     4.99741   4.20228  -0.25223
H     6.31000   2.12669  -0.05791
H     5.18907  -0.06585  -0.24084
H     2.74510  -0.17122  -0.61487
H     0.69171   4.39074  -2.32372
H    -0.32082   6.53919  -1.66597
H    -1.60831   6.71159   0.42781
H    -1.88664   4.73197   1.87453
H    -0.85753   2.57209   1.22074
O     0.69105   0.42592   1.43650
