45

Ni    0.00000   0.00000   0.00000
Cl    0.98300  -1.02601  -1.51953
P    -1.18127   1.10550   1.38483
N     0.82129   1.78116  -0.43593
C    -0.39708   1.40779   2.98860
C    -0.70494   0.51933   4.01964
C    -0.06246   0.61954   5.23847
C     0.90215   1.59490   5.43736
C     1.23771   2.45597   4.40556
C     0.60196   2.35794   3.18093
C    -2.92479   0.82855   1.80064
C    -3.52856   1.45384   2.88853
C    -4.87590   1.25860   3.13172
C    -5.62496   0.44323   2.29783
C    -5.02578  -0.18308   1.21719
C    -3.67919   0.00889   0.96679
C    -1.21618   2.74917   0.44728
C    -1.76808   3.92164   1.24658
C    -2.10032   2.48863  -0.78359
C     0.19629   2.90865  -0.05613
C     0.81598   4.14546  -0.18134
C     2.09790   4.22145  -0.70028
C     2.72507   3.05227  -1.09397
C     2.04806   1.85435  -0.94552
H    -1.44202  -0.25346   3.84830
H    -0.30800  -0.06868   6.03342
H     1.40341   1.67465   6.39033
H     2.00479   3.20261   4.55160
H     0.89295   3.01621   2.37406
H    -2.94417   2.07909   3.54931
H    -5.34313   1.74234   3.97713
H    -6.67552   0.29165   2.49659
H    -5.60669  -0.82499   0.57232
H    -3.19452  -0.49164   0.13910
H    -1.12864   4.17470   2.08956
H    -1.88281   4.79983   0.61250
H    -2.75361   3.66186   1.62923
H    -1.76332   1.58633  -1.30591
H    -3.13793   2.34990  -0.48490
H    -2.04381   3.32749  -1.47635
H     0.30084   5.04180   0.12358
H     2.58986   5.17753  -0.79833
H     3.71932   3.05997  -1.50966
H     2.48875   0.91645  -1.26072
O    -0.62647  -1.36992   0.67332
