50

Zn    0.00000   0.00000   0.00000
Cl   -1.16367  -0.34085  -1.80238
N     1.98116   0.51322  -0.36239
N     0.88249  -1.71823   0.76938
N     2.55507  -0.37134   1.75062
N     7.48716   3.55888  13.51793
C     2.25474   1.31794  -1.38849
C     3.30774   2.20543  -1.39327
C     4.10273   2.27011  -0.25385
C     3.84108   1.42734   0.80237
C     2.76695   0.52326   0.71788
C     0.19575  -2.85937   0.73175
C     0.31901  -3.84747   1.68299
C     1.19015  -3.61839   2.74265
C     1.92015  -2.45215   2.77843
C     1.76448  -1.50562   1.74985
C     3.18402  -0.04383   3.00208
C     4.45214  -0.51829   3.31648
C     5.02265  -0.18003   4.52664
C     4.35025   0.63669   5.44367
C     3.07352   1.09520   5.10449
C     2.49319   0.76103   3.89724
C     5.00932   0.96071   6.69473
C     4.56247   1.81776   7.62502
C     5.21930   2.15284   8.87258
C     6.38382   1.52142   9.32483
C     6.96801   1.88070  10.51898
C     6.39959   2.88925  11.30036
C     5.23615   3.52764  10.86693
C     4.66018   3.15805   9.67191
C     6.99896   3.25914  12.52458
H     1.58310   1.22708  -2.23119
H     3.49177   2.83793  -2.24541
H     4.92353   2.96878  -0.19442
H     4.45449   1.46425   1.68680
H    -0.47750  -2.95909  -0.10876
H    -0.25679  -4.75499   1.61322
H     1.30212  -4.34806   3.53037
H     2.60248  -2.26733   3.59089
H     4.98115  -1.14670   2.61455
H     6.00884  -0.54896   4.76895
H     2.51965   1.71508   5.79046
H     1.50691   1.11204   3.62948
H     5.95379   0.45458   6.84434
H     3.63129   2.34245   7.45901
H     6.83500   0.73564   8.73954
H     7.86602   1.38704  10.86067
H     4.79649   4.30575  11.47328
H     3.75967   3.65514   9.34099
O    -0.27253   0.84128   1.39301
