37

Zn    0.00000   0.00000   0.00000
Cl   -2.17382   0.10130   0.20180
O     8.08528   0.74986   0.81172
O     7.93527   0.83651  -1.33092
N     0.64810  -1.35917   1.52461
N     0.45862  -1.67382  -1.27146
N     2.40882  -1.78474   0.02664
N     7.49195   0.56962  -0.23263
C    -0.00271  -1.59785   2.65718
H    -0.92024  -1.04317   2.79269
C     0.45407  -2.50000   3.60034
H    -0.09660  -2.65936   4.51273
C     1.62676  -3.19488   3.33806
H     2.01032  -3.91755   4.04227
C     2.29197  -2.96194   2.14776
H     3.19221  -3.49953   1.89338
C     1.76986  -2.02016   1.26229
C     1.69889  -2.13392  -1.13252
C     2.27133  -2.99518  -2.07073
H     3.27330  -3.36547  -1.92023
C     1.52774  -3.36285  -3.17537
H     1.94876  -4.02459  -3.91696
C     0.22991  -2.88425  -3.30563
H    -0.38307  -3.15571  -4.14904
C    -0.26275  -2.04676  -2.32347
H    -1.26746  -1.65005  -2.36071
C     3.67234  -1.20214  -0.03420
C     4.40106  -0.94648   1.13267
H     3.98469  -1.17732   2.09966
C     5.64563  -0.36219   1.06860
H     6.21175  -0.16271   1.96542
C     6.18522  -0.01534  -0.16442
C     5.45209  -0.21675  -1.32922
H     5.86627   0.10167  -2.27330
C     4.20900  -0.80098  -1.26336
H     3.63220  -0.90701  -2.16697
O     1.27339   1.00059  -0.31591
