39

N    -0.55840   0.02207  -2.97376
C     0.21109  -0.40565  -1.95819
C    -0.06913  -0.44314  -4.16534
H    -0.53373  -0.21813  -5.10302
C     2.23031  -1.82496  -1.77966
H     1.76199  -2.57566  -1.12952
H     2.87100  -2.33816  -2.50081
C     1.03324  -1.17356  -3.87716
H     1.70557  -1.70304  -4.52044
C     3.04924  -0.85118  -0.93415
H     3.82459  -1.39110  -0.39671
H     2.39639  -0.34601  -0.20033
H     3.51439  -0.09278  -1.56162
C    -1.74161   0.82723  -2.82171
H    -2.63019   0.19341  -2.74405
H    -1.84882   1.49065  -3.67898
H    -1.64758   1.43379  -1.91385
N     1.19030  -1.14157  -2.51807
Pd    0.00000   0.00000   0.00000
N     0.55789  -0.02053   2.97425
C    -0.21074   0.40697   1.95795
C     0.06730   0.44450   4.16538
H     0.53108   0.21964   5.10350
C    -2.23077   1.82499   1.77762
H    -1.76233   2.57607   1.12800
H    -2.87247   2.33764   2.49825
C    -1.03515   1.17437   3.87615
H    -1.70835   1.70351   4.51881
C    -3.04827   0.85077   0.93121
H    -3.82365   1.39025   0.39335
H    -2.39438   0.34641   0.19772
H    -3.51331   0.09182   1.55810
C     1.74141  -0.82544   2.82352
H     2.63077  -0.19170   2.75484
H     1.84356  -1.49471   3.67691
H     1.65187  -1.42586   1.91110
Br   -0.71607  -2.31517   0.38687
N    -1.19096   1.14225   2.51692
O     0.48223   1.55643  -0.25980
