31

Pt    0.00000   0.00000   0.00000
Br    1.83407   0.86693   1.21599
N    -1.58777  -0.86542  -0.87295
N    -3.85952  -2.28502  -1.52706
N     0.51766  -1.95623   0.24937
N    -2.55659  -4.52986   0.82320
C    -1.64467  -2.20384  -0.66975
C    -2.86694  -2.87651  -0.87458
C    -3.71688  -1.01905  -1.87593
H    -4.51707  -0.57941  -2.45157
C    -2.62679  -0.27123  -1.46239
H    -2.58091   0.79792  -1.61088
C    -0.39238  -2.81420  -0.25829
C    -0.08063  -4.15765  -0.46534
H    -0.79037  -4.80170  -0.95628
C     1.14807  -4.63811  -0.06035
H     1.40893  -5.67324  -0.21577
C     2.04075  -3.76058   0.54341
H     3.00270  -4.09448   0.89596
C     1.69377  -2.42945   0.65974
H     2.38108  -1.71516   1.09243
C    -3.18074  -4.19401  -0.30445
C    -4.15757  -4.99589  -0.89260
H    -4.64038  -4.66838  -1.79866
C    -4.47812  -6.19650  -0.28191
H    -5.22642  -6.84570  -0.71217
C    -3.82770  -6.54541   0.89126
H    -4.05127  -7.46860   1.40182
C    -2.87758  -5.66919   1.40124
H    -2.34691  -5.88726   2.31860
O    -0.46786   1.54306  -0.35009
