37

Zn    0.00000   0.00000   0.00000
O    -0.07098  -1.89502   0.33558
O    -0.60541   2.16373  -1.03128
N    -1.75820   0.08268   1.06591
N     0.24593  -0.16025  -2.09530
C    -2.03163  -1.17698   1.45174
C    -1.10927  -2.20020   1.04056
C    -1.39781  -3.50634   1.43692
H    -0.71730  -4.29073   1.14320
C    -2.52202  -3.80269   2.19945
H    -2.70054  -4.83062   2.48128
C    -3.40585  -2.82883   2.60152
H    -4.27298  -3.07204   3.19624
C    -3.17498  -1.49456   2.23660
C    -4.01225  -0.42099   2.60228
H    -4.88963  -0.61783   3.20218
C    -3.70335   0.85073   2.19836
H    -4.32424   1.69142   2.46613
C    -2.55766   1.06148   1.42185
H    -2.29477   2.05309   1.08341
C     0.48682   0.98176  -2.77382
C     0.10834   2.21532  -2.18502
C     0.45079   3.39555  -2.79892
H     0.20235   4.33616  -2.32858
C     1.11858   3.39228  -4.03040
H     1.36917   4.33649  -4.48885
C     1.44395   2.21752  -4.64964
H     1.94674   2.21301  -5.60454
C     1.14517   0.98754  -4.03130
C     1.48952  -0.26390  -4.58286
H     1.98530  -0.29923  -5.54242
C     1.20190  -1.40712  -3.88733
H     1.45498  -2.38014  -4.27782
C     0.59226  -1.30596  -2.62793
H     0.39540  -2.18363  -2.02969
H    -0.42611   2.95046  -0.50009
O     1.29464   0.90299   0.48065
