48

Nb    0.00000   0.00000   0.00000
C    -0.73459  -1.56840  -1.48390
C     1.33456  -1.57623   0.83358
C    -0.99126  -2.55434  -0.38835
B     0.78533  -1.61304  -1.96643
H     1.04409  -1.17153  -3.02577
B     2.00893  -1.66315  -0.61490
H     3.10398  -1.25935  -0.76500
B     0.04155  -2.50117   0.95034
H    -0.43968  -2.75672   1.99794
B    -0.19875  -3.14504  -1.84572
H    -0.81055  -3.68752  -2.68565
B     1.64840  -3.17343   0.33903
H     2.43179  -3.76077   0.98450
B     0.18143  -3.82262  -0.29268
H    -0.20517  -4.90618  -0.05556
B     1.48683  -3.17642  -1.41259
H     2.23049  -3.79933  -2.07412
C    -2.44458  -2.88494  -0.11531
H    -2.53183  -3.73749   0.55582
H    -2.97914  -3.12098  -1.03699
H    -2.94566  -2.03661   0.35844
H    -1.59132  -1.28247  -2.10113
H     1.90810  -1.30499   1.72251
C    -0.73447   1.56835  -1.48399
C    -0.99118   2.55423  -0.38839
C     1.33469   1.57618   0.83348
B     2.00904   1.66319  -0.61500
B     0.78545   1.61309  -1.96652
B    -0.19870   3.14503  -1.84574
B     0.04163   2.50105   0.95029
B     1.64844   3.17341   0.33900
H     1.04423   1.17164  -3.02588
H    -0.81054   3.68753  -2.68564
B     0.18144   3.82256  -0.29267
C    -2.44452   2.88473  -0.11533
H    -2.53181   3.73725   0.55585
H    -2.97910   3.12080  -1.03700
H    -2.94554   2.03635   0.35839
H    -0.43960   2.75655   1.99791
H     2.43181   3.76076   0.98449
H    -0.20521   4.90609  -0.05550
B     1.48687   3.17648  -1.41262
H     3.10411   1.25945  -0.76513
H     2.23050   3.79946  -2.07412
H     1.90827   1.30492   1.72238
H    -1.59118   1.28242  -2.10125
O    -1.25711   0.00012   1.06873
