65

Ni    0.00000   0.00000   0.00000
Cl    1.48790  -1.14338  -0.84925
P    -0.99455  -1.69699   0.71608
C    -2.77814  -1.87787   1.10140
C    -3.13011  -3.03599   1.78429
C    -4.45335  -3.28457   2.09797
C    -5.43523  -2.37881   1.72879
C    -5.08327  -1.22123   1.05735
C    -3.75678  -0.96994   0.74519
O    -0.63493  -3.19181   0.22413
C    -0.85640  -3.76370  -1.05023
C     0.46535  -4.32711  -1.57667
C    -1.91664  -4.86506  -0.92346
C    -1.36773  -2.71691  -1.98258
N    -1.69817  -1.56055  -1.59277
C    -2.04353  -0.76204  -2.76824
C    -2.03301  -1.83313  -3.89581
O    -1.49976  -3.00644  -3.27757
C    -3.40079  -0.09087  -2.60238
C    -0.94434   0.28350  -2.96883
O    -0.53380  -1.89197   2.24542
C     0.75079  -1.93445   2.85154
C     1.64781  -2.99623   2.21167
C     0.48769  -2.24983   4.32732
C     1.46949  -0.61418   2.75079
N     1.22465   0.32365   1.93876
C     2.15147   1.42178   2.18878
C     3.06995   0.83376   3.29364
O     2.49610  -0.43496   3.60252
C     1.35285   2.62993   2.67739
C     2.90080   1.74803   0.90025
H    -2.35944  -3.73555   2.06987
H    -4.72052  -4.18611   2.63078
H    -6.46999  -2.57435   1.97026
H    -5.84247  -0.50592   0.77690
H    -3.47553  -0.05710   0.24937
H     0.32066  -4.73719  -2.57171
H     1.20432  -3.52940  -1.61352
H     0.81757  -5.10537  -0.90533
H    -2.08052  -5.32689  -1.89305
H    -1.57136  -5.61643  -0.21852
H    -2.85059  -4.44215  -0.55934
H    -1.39192  -1.56056  -4.73577
H    -3.03848  -2.06340  -4.26137
H    -3.33047   0.67941  -1.83992
H    -3.69821   0.36897  -3.54200
H    -4.15390  -0.81613  -2.30280
H    -0.79792   0.82791  -2.02284
H    -0.00605  -0.19635  -3.24435
H    -1.22757   0.99748  -3.73838
H     2.58657  -3.05721   2.75630
H     1.14258  -3.95773   2.24111
H     1.84609  -2.73358   1.17467
H     1.42036  -2.23671   4.88291
H    -0.19214  -1.50971   4.74195
H     0.02589  -3.22995   4.40725
H     3.08165   1.44103   4.20133
H     4.09518   0.67646   2.94627
H     2.01108   3.48319   2.82222
H     0.59258   2.88262   1.94208
H     0.85123   2.39827   3.61480
H     3.59285   2.57158   1.05910
H     3.44829   0.87696   0.54500
H     2.18093   2.03477   0.13341
O    -1.19418   1.02483   0.49613
