39

Zn    0.00000   0.00000   0.00000
Cl    1.01240  -1.97503  -0.11648
N     1.49380   1.02365  -1.13508
N    -0.89733   0.14185  -1.92171
C     1.30563   0.79280  -2.43750
C     2.35217   0.91872  -3.34889
H     2.20204   0.71375  -4.39619
C     3.60455   1.29137  -2.88814
H     4.43191   1.38172  -3.57591
C     3.77662   1.54295  -1.53734
H     4.73324   1.84071  -1.13984
C     2.68360   1.39109  -0.69631
H     2.76020   1.57074   0.36725
C    -0.05560   0.39795  -2.84219
C    -0.38126   0.36234  -4.30215
H    -1.45087   0.22171  -4.44228
H     0.14561  -0.45998  -4.78424
H    -0.07639   1.29209  -4.77917
C    -2.22271  -0.25475  -2.16586
C    -3.24011   0.65729  -1.86256
C    -4.55734   0.26851  -2.04251
H    -5.34388   0.97434  -1.81834
C    -4.88507  -1.00272  -2.49092
C    -3.85678  -1.89423  -2.76230
H    -4.09858  -2.89300  -3.09647
C    -2.52291  -1.54669  -2.61226
C    -2.89362   2.02918  -1.37607
H    -3.79366   2.61196  -1.20095
H    -2.27174   2.55510  -2.10098
H    -2.33208   1.96629  -0.44338
C    -6.31298  -1.42248  -2.65996
H    -6.98216  -0.57006  -2.57836
H    -6.58243  -2.14589  -1.89083
H    -6.46183  -1.89654  -3.62867
C    -1.44589  -2.55278  -2.88541
H    -0.63190  -2.46490  -2.16810
H    -1.03440  -2.42133  -3.88687
H    -1.85289  -3.55859  -2.82256
O    -0.52979   0.92408   1.26012
