45

C     0.02689  -1.10806  -4.58903
H     0.81154  -1.40980  -5.26378
C    -3.24498   0.93098   0.34099
H    -2.83410   1.21547   1.30123
C    -4.61682   1.02934   0.10728
H    -5.27113   1.38695   0.88571
C    -5.10109   0.65853  -1.12256
H    -6.15773   0.71421  -1.34165
C    -4.20334   0.20517  -2.10023
C    -4.57477  -0.19786  -3.40329
C    -5.57864  -0.74088  -5.28885
C    -6.59716  -0.87109  -6.30488
C    -6.20248  -0.73590  -7.63964
C    -7.97962  -1.05576  -5.99497
C    -7.17897  -0.61461  -8.65186
H    -6.82887  -0.47188  -9.66169
C    -8.50457  -0.65781  -8.34936
H    -9.24584  -0.53265  -9.12451
C    -8.94184  -0.90466  -7.02816
C   -10.31149  -1.03397  -6.72850
H   -11.02731  -0.89496  -7.52543
C   -10.72985  -1.35040  -5.46528
H   -11.78106  -1.44829  -5.24136
C    -9.78134  -1.59228  -4.46538
H   -10.10925  -1.90695  -3.48546
C    -8.44303  -1.45162  -4.72317
H    -7.73540  -1.71736  -3.95181
N    -5.79213  -0.27317  -4.02011
H    -6.67732   0.03098  -3.65084
O    -4.92584  -0.67269  -8.02133
H    -4.34678  -0.79903  -7.23187
C     0.34153  -0.72307  -3.28547
H     1.37157  -0.72525  -2.95106
C    -1.29067  -1.09651  -4.97634
H    -1.60183  -1.39144  -5.96663
C    -2.26103  -0.68671  -4.05373
C    -1.85289  -0.30655  -2.75344
C    -2.82282   0.14118  -1.77419
C    -3.64899  -0.63073  -4.35214
N    -2.38487   0.50145  -0.55776
N    -0.55593  -0.34349  -2.40005
N    -4.28994  -0.94889  -5.50560
Hg    0.00000   0.00000   0.00000
I     1.07072   2.37621   0.00544
O    -0.21947  -1.54333   0.54079
