46

C    -1.53096  -0.87987   0.62706
C    -1.50471  -1.81796   1.65147
C    -2.67215  -2.42937   2.08342
C    -3.87416  -2.08875   1.48107
C    -3.93397  -1.15162   0.45994
C    -2.75448  -0.55704   0.04383
C    -1.33368   0.86240  -1.18743
C    -3.49017   1.01768  -1.79439
C    -2.76621   1.87113  -2.56098
C    -0.40407   2.53652  -2.78081
C     2.06715  -2.56892   1.01456
C     2.54381  -2.70656  -0.28048
C     3.40926  -3.74341  -0.58591
C     3.78787  -4.64172   0.39682
C     3.30222  -4.50888   1.68955
C     2.44394  -3.47279   2.00201
C     1.77840  -0.50128   2.88771
C     1.11653  -0.26339   4.08534
C     1.79328   0.32587   5.13814
C     3.12107   0.69206   4.99160
C     3.77584   0.47165   3.78979
C     3.10821  -0.12149   2.73533
Ni    0.00000   0.00000   0.00000
O    -0.27321  -2.09677   2.21508
N    -2.60120   0.41032  -0.96197
P     0.91510  -1.23522   1.47066
N    -1.45609   1.76255  -2.17790
H    -2.63534  -3.15861   2.87772
H    -4.78375  -2.56320   1.81660
H    -4.87955  -0.89579   0.00624
H    -4.53983   0.80878  -1.78515
H    -3.07618   2.53765  -3.33954
H    -0.57225   3.59908  -2.59868
H     0.55392   2.24961  -2.35106
H    -0.38365   2.36042  -3.85698
H     2.24885  -1.99932  -1.04432
H     3.78815  -3.84732  -1.59174
H     4.46338  -5.45000   0.15752
H     3.59725  -5.21332   2.45361
H     2.05725  -3.35570   3.00501
H     0.07807  -0.54496   4.19174
H     1.28120   0.50537   6.07249
H     3.64500   1.15610   5.81431
H     4.80789   0.76615   3.67252
H     3.60842  -0.28292   1.79054
O     1.44027   0.68965  -0.41534
