51

Pd    0.00000   0.00000   0.00000
C     1.34728  -4.69917   0.52323
H     1.05747  -5.22507   1.41858
C     2.06982  -5.37915  -0.44199
H     2.32518  -6.41556  -0.27940
C     2.46482  -4.73883  -1.60317
H     3.02771  -5.27158  -2.35396
C     2.13609  -3.40755  -1.79037
H     2.44178  -2.89115  -2.68714
C     1.41446  -2.72229  -0.82795
H     1.18722  -1.65969  -1.01755
C     1.00642  -3.36144   0.34336
C     0.19995  -2.59597   1.39309
C     0.14433  -3.29493   2.75853
H     1.15328  -3.49439   3.11345
H    -0.41977  -4.22093   2.72221
H    -0.34201  -2.62463   3.46494
C    -3.44281  -3.02165   1.76163
H    -3.58924  -2.00687   2.09628
C    -4.42852  -3.96566   1.98185
H    -5.34227  -3.67572   2.47763
C    -4.24739  -5.27410   1.56700
H    -5.02043  -6.00831   1.73485
C    -3.07045  -5.63785   0.93375
H    -2.92448  -6.65535   0.60327
C    -2.07772  -4.70051   0.71592
H    -1.17021  -4.98481   0.20421
C    -2.25525  -3.38004   1.12805
C    -1.21975  -2.36285   0.86256
C    -3.30915  -1.53841  -1.33515
C    -4.56433  -1.12752  -1.75828
H    -5.00849  -1.60262  -2.62013
C    -5.23835  -0.11330  -1.10465
H    -6.21637   0.19111  -1.44484
C    -4.64413   0.54013  -0.03926
H    -5.15318   1.36272   0.44057
C    -3.38877   0.16615   0.41038
C    -2.74913  -0.91096  -0.21980
C    -2.53001  -2.56815  -2.09504
H    -1.50279  -2.22399  -2.23179
H    -2.97591  -2.72826  -3.07275
H    -2.50762  -3.52188  -1.56688
C    -2.70037   0.90931   1.51818
H    -2.42222   0.24473   2.34040
H    -3.34425   1.69365   1.90781
H    -1.77443   1.38397   1.12871
Cl   -0.87107   1.01530  -1.77586
N    -1.47187  -1.26935   0.24205
O     0.76870  -1.29371   1.63735
H     1.73701  -1.33222   1.59340
O     1.36179   0.93144  -0.02131
