25

Hg    0.00000   0.00000   0.00000
I     2.36863   0.84039  -0.69876
O    -3.40026   0.06220  -6.15614
O    -1.45189  -1.89966  -6.59459
N    -1.37177   0.93944  -1.96593
N    -0.30655  -1.58601  -2.00843
C    -1.94840   2.12984  -1.90001
H    -1.76333   2.69684  -0.99674
C    -2.75046   2.64720  -2.90739
H    -3.20370   3.61889  -2.79772
C    -2.94508   1.88378  -4.04231
H    -3.55619   2.22349  -4.86573
C    -2.32849   0.63626  -4.13209
C    -1.54768   0.19117  -3.05568
C    -2.54673  -0.18652  -5.34251
C    -1.62093  -1.39405  -5.51362
C    -0.91949  -1.13373  -3.10313
C    -0.95994  -1.88739  -4.28497
C    -0.32649  -3.12938  -4.31004
H    -0.34397  -3.70502  -5.22395
C     0.29579  -3.58718  -3.16457
H     0.79047  -4.54433  -3.13657
C     0.27089  -2.77753  -2.03777
H     0.73875  -3.10016  -1.11648
O    -1.28320  -0.44602   0.93647
