43

Re    0.00000   0.00000   0.00000
S    -4.48906   1.26377  -0.44094
S     1.78534   3.04466  -3.09944
O    -0.56367  -0.57604  -1.73310
O     1.77769  -0.90156  -0.45280
O     0.39330   0.87297   1.35834
N    -2.05568   0.61784   0.11793
N     0.68619   1.70261  -1.19906
C    -1.34434  -0.06275  -2.63277
C    -1.07045  -0.23731  -4.00094
H    -0.19701  -0.81396  -4.26744
C    -1.87432   0.32882  -4.96215
H    -1.63076   0.19622  -6.00562
C    -2.99630   1.07088  -4.60182
H    -3.62268   1.51022  -5.36195
C    -3.30583   1.23586  -3.27106
H    -4.17702   1.80412  -2.97703
C    -2.49738   0.69251  -2.26890
C    -2.84939   0.82621  -0.87734
C    -4.05902   1.28474   1.33133
H    -4.07821   2.32261   1.66374
H    -4.81108   0.71763   1.87436
C    -2.66444   0.66151   1.42874
H    -2.00426   1.22940   2.09123
H    -2.69815  -0.37086   1.79831
C     2.53847  -0.64982  -1.46293
C     3.52224  -1.62870  -1.75538
H     3.55907  -2.47983  -1.09298
C     4.37202  -1.51873  -2.82169
H     5.09930  -2.29391  -3.01228
C     4.29597  -0.41139  -3.66924
H     4.95834  -0.32481  -4.51595
C     3.37320   0.56635  -3.40878
H     3.31579   1.43204  -4.05438
C     2.48664   0.49527  -2.31770
C     1.60708   1.60406  -2.09267
C     0.30868   3.79921  -2.34809
H     0.50433   4.85171  -2.16125
H    -0.51336   3.69833  -3.05863
C     0.06990   2.99898  -1.06914
H     0.52024   3.48828  -0.19692
H    -0.99676   2.87812  -0.87304
O    -0.48897  -1.41187   0.70002
