33

Pd    0.00000   0.00000   0.00000
I    -1.86546  -1.65765  -0.74663
C    -0.24877   2.10724   0.17745
O    -0.50558   2.78488  -0.83836
C     1.06933   1.69039   0.63705
N     2.21206   2.01791  -0.10970
C     3.42499   1.50555   0.11685
N     4.24642   1.83853  -0.88737
C     5.58605   1.35167  -1.05102
C     3.52581   2.55937  -1.78841
C     2.25890   2.67930  -1.30681
C    -1.26163   1.37543   0.95149
N    -2.58559   1.47455   0.50000
C    -2.94761   1.46932  -0.78235
N    -4.28265   1.44028  -0.86673
C    -5.02757   1.30865  -2.08631
C    -4.78069   1.40456   0.39771
C    -3.72239   1.43297   1.25403
H     1.26360   1.60778   1.71062
H     3.69787   0.91046   0.96507
H     6.08842   1.92395  -1.82772
H     5.55918   0.29793  -1.33990
H     6.13793   1.44610  -0.11654
H     3.95048   2.92840  -2.69840
H     1.38300   3.14795  -1.71209
H    -1.18647   1.37290   2.04201
H    -2.26816   1.50203  -1.61464
H    -5.02776   0.26366  -2.40758
H    -4.56932   1.91417  -2.86726
H    -6.05358   1.63537  -1.92700
H    -5.82998   1.35633   0.60155
H    -3.69759   1.40305   2.32388
O     1.30813  -0.81148  -0.59395
