39

Pt    0.00000   0.00000   0.00000
Cl    0.16329   0.99825   2.03407
O     1.13437  -1.75104  -1.97463
H     1.75462  -1.55224  -1.25355
O     0.68000  -1.89955   1.94176
H     0.89272  -0.98258   2.26030
N     0.04507  -0.88585  -1.81699
N    -0.37779  -1.69028   1.06436
C    -1.72043   1.50132  -3.55668
H    -2.62145   2.09632  -3.43643
H    -1.57301   1.30983  -4.61607
H    -0.87582   2.06942  -3.17708
C    -1.85733   0.20396  -2.75715
H    -2.01313   0.46718  -1.70419
H    -2.71865  -0.36320  -3.12052
C    -0.64269  -0.65682  -2.86847
C    -0.28244  -1.25224  -4.19483
H     0.80100  -1.19077  -4.31763
H    -0.76343  -0.68566  -4.99039
C    -0.70223  -2.72177  -4.29469
H    -0.44745  -3.10734  -5.27807
H    -1.77496  -2.82682  -4.14962
H    -0.18179  -3.31649  -3.54908
C    -2.47911  -3.33165  -0.98661
H    -3.31913  -3.13810  -1.64810
H    -2.55347  -4.35620  -0.63091
H    -1.55808  -3.23073  -1.55240
C    -2.49311  -2.34235   0.17918
H    -2.47284  -1.31745  -0.20295
H    -3.40709  -2.48043   0.76025
C    -1.32546  -2.54298   1.08744
C    -1.33267  -3.70365   2.03446
H    -0.31693  -4.08561   2.14560
H    -1.97336  -4.49490   1.64542
C    -1.84695  -3.24757   3.40433
H    -1.84744  -4.08560   4.09578
H    -2.85979  -2.85962   3.32530
H    -1.20672  -2.46686   3.80556
O     0.46814   1.38168  -0.77092
