35

Ni    0.00000   0.00000   0.00000
Br    0.67372   0.82318  -1.95207
N    -1.81972  -1.25042  -0.65130
S    -3.56455  -3.14246  -0.51448
C    -1.96242  -2.48203  -0.29559
C    -0.87084  -3.32480   0.26603
C    -2.98421  -0.70811  -1.13116
C    -3.15711   0.59692  -1.58315
C    -4.40183   0.98300  -2.02928
C    -5.47334   0.09151  -2.03138
C    -5.32374  -1.20722  -1.58605
C    -4.07435  -1.60009  -1.13721
H    -1.21746  -4.35650   0.32293
H    -0.66444  -2.98496   1.28712
H    -2.32225   1.28188  -1.58100
H    -4.55053   1.99172  -2.38270
H    -6.43805   0.42128  -2.38562
H    -6.15144  -1.89917  -1.58345
N     1.41711  -1.14214   0.27177
C     0.42302  -3.24786  -0.58213
C     1.48753  -2.41773   0.04474
C     2.56364  -0.62471   0.82585
H     0.81998  -4.25077  -0.73962
H     0.18520  -2.81494  -1.56020
S     2.99418  -3.14067   0.51809
C     2.78530   0.71215   1.15080
C     3.56523  -1.58189   1.04533
C     4.00023   1.06021   1.69691
H     2.00652   1.44853   0.96673
C     4.78557  -1.22689   1.59693
C     4.98768   0.10045   1.91967
H     4.19310   2.08935   1.95575
H     5.54880  -1.96983   1.76397
H     5.93026   0.40067   2.35034
O    -0.49676   0.12488   1.56848
