32

Cu    0.00000   0.00000   0.00000
S     3.06157   2.19066  -1.20788
S    -2.28902   0.14543   0.88268
C     1.68758   1.47574  -2.18183
H     1.97896   1.62773  -3.22082
H     1.62324   0.40789  -1.95881
C     0.41381   2.17803  -1.86970
C     0.25554   3.54913  -2.07916
H     1.05689   4.14323  -2.49438
C    -1.84594   3.47024  -1.24982
H    -2.75433   4.00706  -1.01627
C    -1.72119   2.10884  -1.01620
C    -2.83211   1.29716  -0.43202
H    -3.25154   0.63684  -1.19427
H    -3.62072   1.93392  -0.03220
C    -1.81753   1.33006   2.19573
H    -2.67519   1.96540   2.41482
H    -1.61179   0.69019   3.05667
C    -0.55354   3.51071   2.09417
H    -1.38743   4.05018   2.52020
C    -0.60809   2.14388   1.86514
C     1.55981   3.58869   1.29558
H     2.42811   4.18427   1.05301
C     1.54623   2.21248   1.06170
C     2.70443   1.50632   0.45098
H     2.51501   0.43476   0.35073
H     3.61736   1.67684   1.02106
N     0.52371   4.22717   1.80357
N     0.44563   1.50442   1.33868
N    -0.58168   1.47255  -1.32137
N    -0.85852   4.18466  -1.77226
O     0.96617  -1.28882  -0.35772
