37

Zn    0.00000   0.00000   0.00000
Cl    1.20828  -1.94393  -0.16698
N    -1.26289  -0.51972   1.44551
N    -1.28445  -2.87644  -1.40299
H    -0.38814  -2.73908  -0.83438
H    -1.42145  -1.89034  -1.79736
O     0.55517   1.62513   0.63311
O     0.36831   5.50949   3.32288
C    -0.94973   1.63556   2.52099
C     0.02945   2.21479   1.65427
C     0.47550   3.52559   1.93742
H     1.21466   3.92480   1.26128
C    -0.00674   4.24933   3.00308
C    -0.96917   3.67081   3.85841
H    -1.33194   4.25102   4.69073
C    -1.40946   2.40611   3.61422
H    -2.14589   1.96489   4.27157
C    -1.48118   0.32968   2.39178
H    -2.14831   0.02154   3.20655
C    -1.85952  -1.83395   1.53273
H    -2.37799  -1.94172   2.49431
H    -1.04346  -2.56187   1.50209
C    -2.83974  -2.09834   0.37192
H    -3.82208  -2.33631   0.78031
H    -2.94158  -1.18750  -0.21956
C    -2.42979  -3.23763  -0.55764
H    -2.18007  -4.13280   0.01918
H    -3.27275  -3.47326  -1.21383
C    -1.01260  -3.82760  -2.47959
H    -0.81325  -4.81636  -2.06876
H    -0.13799  -3.49318  -3.03032
H    -1.86171  -3.88513  -3.15905
C     1.32132   6.15702   2.51214
H     2.27499   5.62091   2.51157
H     1.46030   7.14391   2.95068
H     0.96385   6.26232   1.48354
O    -0.84551  -0.00433  -1.41689
