69

Pd    0.00000   0.00000   0.00000
Cl   -2.14571   0.06389  -0.72987
P    -0.15531   1.53614   1.64946
O    -0.09691   3.12408   1.50132
C    -0.97486   3.94176   0.81152
C    -1.98865   3.44511   0.01358
H    -2.13369   2.37528  -0.07490
C    -2.80543   4.32877  -0.67080
H    -3.59218   3.93855  -1.29708
C    -2.61730   5.69489  -0.55192
H    -3.25814   6.37938  -1.08671
C    -1.60850   6.18263   0.26150
H    -1.46177   7.24711   0.36650
C    -0.78237   5.30970   0.94595
H     0.00752   5.67291   1.58480
O    -1.32022   1.48940   2.77289
C    -1.67302   0.28767   3.37525
C    -1.44680   0.14524   4.73675
H    -1.00361   0.96083   5.28766
C    -1.80008  -1.03523   5.36719
H    -1.62885  -1.14423   6.42765
C    -2.36384  -2.07172   4.64207
H    -2.63319  -2.99231   5.13707
C    -2.58453  -1.92295   3.28322
H    -3.02507  -2.72505   2.71166
C    -2.23931  -0.74466   2.64029
H    -2.42728  -0.61483   1.58057
N     1.23945   1.31030   2.56303
C     1.61490   2.23505   3.61921
H     2.02196   1.65757   4.45715
H     0.69412   2.72335   3.94547
C     2.63070   3.27798   3.17049
H     2.94219   3.88174   4.01901
H     2.19023   3.92360   2.41684
H     3.50462   2.78925   2.74684
N     2.26468   0.41818   2.16967
C     2.21787  -0.84989   2.92174
H     2.02599  -0.59040   3.96658
H     3.21877  -1.28498   2.85361
C     1.17921  -1.85660   2.43418
H     1.10325  -2.67687   3.14501
H     1.46576  -2.26929   1.46304
H     0.18569  -1.39218   2.35079
P     2.17496   0.15092   0.48071
O     2.74527   1.55397  -0.06592
C     1.95569   2.39184  -0.84780
C     2.04991   3.75726  -0.62716
H     2.73629   4.12118   0.12113
C     1.27052   4.62738  -1.37060
H     1.34971   5.68981  -1.19989
C     0.38692   4.13879  -2.31712
H    -0.23915   4.81882  -2.87291
C     0.32416   2.77772  -2.56417
H    -0.33443   2.39071  -3.32682
C     1.11958   1.89337  -1.84700
H     1.16158   0.84046  -2.13821
O     3.35227  -0.86765   0.19123
C     4.71177  -0.58977   0.14484
C     5.47180  -1.32276  -0.75512
H     4.98003  -2.04034  -1.39264
C     6.83856  -1.11797  -0.81423
H     7.43221  -1.68759  -1.51266
C     7.44122  -0.18420   0.01276
H     8.50727  -0.02399  -0.03934
C     6.67357   0.54392   0.90523
H     7.13890   1.27261   1.55185
C     5.30554   0.34303   0.97730
H     4.68925   0.89565   1.66926
O     0.30298  -1.27598  -1.00129
