69

Pt    0.00000   0.00000   0.00000
Cl   -0.39195  -1.66800  -1.52978
P    -1.19273   1.43736  -1.29650
N    -1.49720   2.75712  -0.29026
C    -2.47806   3.79141  -0.57337
H    -3.02721   3.48097  -1.46388
H    -1.97305   4.73992  -0.78964
C    -3.42276   3.96308   0.60936
H    -4.11660   4.77783   0.42062
H    -2.84906   4.18163   1.50643
H    -3.98672   3.04919   0.77573
P     0.04147   1.77521   1.46221
N    -0.48513   3.14826   0.61057
C     0.58740   3.95450   0.00418
H     1.53134   3.39697   0.00090
H     0.32184   4.16161  -1.03655
C     0.75775   5.26191   0.76444
H     1.54268   5.85698   0.30451
H     1.02650   5.05493   1.79498
H    -0.16918   5.82936   0.75709
O    -0.62028   2.01844  -2.70572
C     0.71326   2.27486  -2.96303
C     1.00967   3.41246  -3.70302
H     0.20273   4.04471  -4.04140
C     2.32739   3.71127  -3.99962
H     2.55526   4.59357  -4.57835
C     3.34655   2.88651  -3.55393
H     4.37385   3.12471  -3.78297
C     3.04345   1.75208  -2.82010
H     3.83124   1.09981  -2.47662
C     1.72825   1.43844  -2.52299
H     1.49237   0.53223  -1.97009
O    -2.68750   1.18536  -1.74456
C    -3.17198   0.02470  -2.34456
C    -2.55421  -0.53840  -3.44699
H    -1.65051  -0.09632  -3.83557
C    -3.09942  -1.67299  -4.02150
H    -2.61164  -2.12266  -4.87226
C    -4.25299  -2.23502  -3.50203
H    -4.66904  -3.12500  -3.94902
C    -4.86987  -1.65809  -2.40532
H    -5.76893  -2.09320  -1.99524
C    -4.33139  -0.52511  -1.82055
H    -4.79720  -0.06441  -0.96254
O    -1.15748   1.55988   2.50233
C    -1.74547   0.29712   2.58323
C    -2.52122  -0.17385   1.53104
H    -2.76295   0.49217   0.71293
C    -3.04102  -1.45839   1.58837
H    -3.62487  -1.83293   0.76125
C    -2.78983  -2.25826   2.69018
H    -3.17355  -3.26634   2.72178
C    -2.04225  -1.76823   3.74753
H    -1.84648  -2.39031   4.60723
C    -1.51071  -0.49077   3.69758
H    -0.89679  -0.10631   4.49766
O     1.12164   2.55692   2.34231
C     1.70751   2.09805   3.51001
C     1.78442   0.75384   3.82950
H     1.40544   0.01162   3.13806
C     2.38358   0.37329   5.01884
H     2.44416  -0.67601   5.26331
C     2.90144   1.32447   5.88078
H     3.36612   1.02213   6.80691
C     2.82619   2.66713   5.54882
H     3.23178   3.41489   6.21353
C     2.22804   3.06022   4.36512
H     2.15763   4.10266   4.09581
O     0.80551  -1.07288   0.96051
