47

Re    0.00000   0.00000   0.00000
C     1.74617  -0.68495  -0.52760
C     0.25590  -0.69424   1.80159
C    -0.95861  -1.57604  -0.60272
O     2.79701  -1.01249  -0.83951
O     0.41506  -1.02148   2.88627
O    -1.56819  -2.48531  -0.96131
N    -1.88559   1.00534   0.51439
C    -2.05629   1.59372   1.69513
H    -1.23801   1.51072   2.39801
C    -3.20441   2.28868   2.03333
H    -3.28964   2.74089   3.00783
C    -4.22561   2.38914   1.10305
H    -5.13603   2.92217   1.32767
C    -4.05054   1.78839  -0.13104
H    -4.80789   1.86503  -0.89701
C    -2.86681   1.10058  -0.38882
C    -2.66268   0.51343  -1.74052
N    -0.31457   1.01813  -1.95040
C     0.70076   1.57098  -2.60718
H     1.66088   1.55932  -2.10842
C     0.56436   2.14483  -3.85922
H     1.42137   2.58315  -4.34421
C    -0.67939   2.13103  -4.47081
H    -0.81944   2.55124  -5.45488
C    -1.74396   1.57420  -3.78479
H    -2.73727   1.54860  -4.20293
C    -1.52439   1.04120  -2.51907
N    -3.45179  -0.30220  -2.33318
N    -4.49849  -0.82074  -1.69043
H    -4.70058  -0.58311  -0.71213
C    -5.28735  -1.75302  -2.27371
C    -6.39367  -2.32674  -1.59624
C    -7.19219  -3.26697  -2.24131
H    -8.03514  -3.69931  -1.71983
C    -6.91250  -3.63972  -3.53977
C    -5.81692  -3.09196  -4.21978
H    -5.61912  -3.41236  -5.23117
C    -5.02422  -2.16902  -3.59483
H    -4.17060  -1.73563  -4.08915
N    -6.75069  -1.98174  -0.25543
O    -7.67117  -2.56973   0.26069
O    -6.11330  -1.09685   0.30882
N    -7.75782  -4.59761  -4.20628
O    -8.70363  -5.03517  -3.58989
O    -7.46748  -4.89679  -5.34444
O     0.62334   1.47346   0.40357
