47

Mn    0.00000   0.00000   0.00000
N     0.50017   1.67252  -1.01134
N     1.14944   0.94883   1.37107
O    -2.68986   1.02565   0.50083
O    -0.28510  -2.38681   1.68917
O    -1.19831  -1.47498  -2.23645
C    -1.60789   0.64773   0.38064
C    -0.19055  -1.44491   1.04166
C    -0.74832  -0.87522  -1.36817
C     0.10556   2.03040  -2.23217
H    -0.66705   1.42574  -2.69125
C     0.64012   3.10633  -2.91542
H     0.28493   3.34224  -3.90525
C     1.64076   3.85706  -2.31159
H     2.08968   4.69391  -2.82348
C     2.05103   3.50600  -1.04182
H     2.82879   4.06122  -0.54404
C     1.45997   2.41090  -0.40938
C     1.82394   1.95456   0.92464
C     1.51288   0.35774   2.61300
C     2.65304  -0.45132   2.55356
H     3.19018  -0.52614   1.61917
C     3.07331  -1.18423   3.64119
H     3.94719  -1.81146   3.56131
C     2.35197  -1.10605   4.81756
H     2.64424  -1.68487   5.68043
C     1.25159  -0.27549   4.88906
H     0.71610  -0.23311   5.82247
C     0.80629   0.49729   3.81619
C    -0.42395   1.37473   4.03667
C    -1.65969   0.48010   3.87076
H    -2.56903   1.06191   4.00263
H    -1.64964  -0.32393   4.60290
H    -1.67487   0.03149   2.87797
C    -0.41939   1.97161   5.45545
H     0.54102   2.43278   5.67704
H    -0.63223   1.22628   6.21558
H    -1.19063   2.73478   5.53082
C    -0.51790   2.56063   3.07109
H    -1.35944   3.18985   3.35479
H    -0.69127   2.23759   2.04805
H     0.38512   3.16710   3.11261
C     2.90861   2.65090   1.68394
H     2.98307   2.25859   2.69558
H     2.71294   3.72143   1.73023
H     3.86418   2.49791   1.18236
O     1.38442  -0.63074  -0.63880
