50

Mn    0.00000   0.00000   0.00000
N    -0.80338   1.53879  -1.06621
N    -1.90608  -0.62470  -0.15165
O     0.79293  -2.51502   1.29105
O     2.80801   0.83538  -0.20303
O    -0.00932   1.54765   2.47892
C     0.48533  -1.52446   0.80194
C     1.70533   0.53336  -0.11447
C    -0.08318   0.90787   1.52487
C    -0.20716   2.63886  -1.52071
H     0.80785   2.81739  -1.18785
C    -0.82005   3.52676  -2.38576
H    -0.28319   4.39765  -2.72480
C    -2.11981   3.27490  -2.81200
H    -2.61687   3.94647  -3.49440
C    -2.75508   2.14438  -2.34386
H    -3.76082   1.89509  -2.64407
C    -2.07106   1.29548  -1.47092
C    -2.64167   0.09302  -0.92883
H    -3.66903  -0.17736  -1.16445
C    -2.47700  -1.81431   0.37814
C    -2.71488  -2.91874  -0.45471
C    -3.20787  -4.08245   0.12223
H    -3.37874  -4.94469  -0.50276
C    -3.48544  -4.15829   1.47109
H    -3.86174  -5.07579   1.89766
C    -3.29934  -3.04642   2.26835
H    -3.54874  -3.09549   3.31663
C    -2.80555  -1.86287   1.74123
C    -2.70438  -0.64701   2.63327
H    -2.30346   0.19085   2.05177
C    -4.09355  -0.23396   3.12835
H    -4.76107  -0.04917   2.28839
H    -4.02112   0.67655   3.71888
H    -4.53330  -1.01051   3.74858
C    -1.76055  -0.90333   3.80918
H    -2.16111  -1.66498   4.47275
H    -1.62001   0.01110   4.38074
H    -0.78892  -1.23593   3.44830
C    -2.44271  -2.91185  -1.94076
H    -2.02792  -1.94914  -2.24615
C    -1.41159  -3.98137  -2.30597
H    -0.51338  -3.85892  -1.70645
H    -1.13206  -3.87707  -3.35083
H    -1.80301  -4.98251  -2.14506
C    -3.74182  -3.11934  -2.72451
H    -4.17329  -4.09544  -2.51763
H    -3.53926  -3.05316  -3.79073
H    -4.48013  -2.36144  -2.46538
O     0.37228  -0.62189  -1.48228
