48

Ni    0.00000   0.00000   0.00000
O    -4.94626  -2.60818  -4.95240
O    -6.15957  -1.70757  -3.42288
N     1.47050  -1.11752   0.89528
N    -0.70166  -1.78677  -0.45036
N    -5.11158  -2.16179  -3.83592
C     0.10794  -2.73562  -0.13792
H    -0.07946  -3.76947  -0.42740
C     1.28536  -2.42674   0.63545
C     2.17429  -3.40487   1.08247
H     1.99205  -4.44247   0.84814
C     3.27546  -3.01432   1.82104
H     3.98099  -3.74728   2.18190
C     3.45472  -1.66374   2.08726
H     4.29963  -1.31663   2.65927
C     2.52795  -0.75167   1.60174
H     2.64249   0.31036   1.78085
C    -1.81142  -2.01669  -1.25640
C    -1.64497  -2.43850  -2.57817
H    -0.65320  -2.66132  -2.94356
C    -2.73117  -2.50430  -3.42212
H    -2.62278  -2.79913  -4.45458
C    -3.99007  -2.16268  -2.94134
C    -4.17668  -1.80514  -1.60939
H    -5.16980  -1.57097  -1.25957
C    -3.09166  -1.73961  -0.76799
H    -3.21368  -1.46031   0.26617
C    -1.42937   0.84384  -0.89124
C    -1.40277   0.90485  -2.27892
C    -2.57903   1.21474  -2.95170
H    -2.56893   1.23400  -4.03284
C    -3.75051   1.49647  -2.26601
C    -3.72520   1.50231  -0.87793
H    -4.62099   1.75374  -0.32742
C    -2.57131   1.18464  -0.17394
C    -0.12918   0.64993  -3.03831
H    -0.30205   0.00005  -3.89447
H     0.27727   1.59453  -3.39975
H     0.62474   0.19077  -2.38294
C    -5.02574   1.77690  -3.00241
H    -4.82695   2.04091  -4.03803
H    -5.66800   0.89511  -2.99343
H    -5.57281   2.59036  -2.53098
C    -2.54686   1.21145   1.33041
H    -1.71788   0.59629   1.71004
H    -2.38654   2.23344   1.67514
H    -3.48313   0.84945   1.75124
O     0.63257   1.49999   0.26903
