46

Ni    0.00000   0.00000   0.00000
N     0.94176   1.23858   1.31947
N    -0.94280  -0.60547   1.61510
C    -0.43173  -0.10198   2.68252
H    -0.73288  -0.43829   3.67542
C     0.54864   0.95068   2.57464
C     1.05667   1.62829   3.68364
H     0.71976   1.36345   4.67431
C     1.98460   2.63213   3.48169
H     2.39481   3.17614   4.31928
C     2.37974   2.92399   2.18308
H     3.10277   3.69763   1.98176
C     1.83387   2.19854   1.13412
H     2.12983   2.38813   0.10967
C    -1.84930  -1.66623   1.73335
C    -1.48623  -2.82834   2.41001
H    -0.50282  -2.90169   2.85404
C    -2.35949  -3.89843   2.46041
H    -2.06381  -4.80406   2.96937
C    -3.60353  -3.81161   1.85974
H    -4.27999  -4.65207   1.89536
C    -3.97757  -2.64459   1.21278
H    -4.94996  -2.56918   0.75057
C    -3.10859  -1.57484   1.14515
H    -3.39471  -0.66316   0.64524
C    -1.03347  -1.12534  -1.09372
C    -0.78941  -2.49363  -1.13681
C    -1.71921  -3.31523  -1.75958
H    -1.54487  -4.38242  -1.77672
C    -2.85653  -2.79478  -2.35989
C    -3.04779  -1.42215  -2.35081
H    -3.91586  -0.99482  -2.83441
C    -2.14109  -0.57321  -1.72889
C     0.45797  -3.07524  -0.52949
H     1.01826  -2.29798   0.00753
H     0.21610  -3.88041   0.16322
H     1.10292  -3.47437  -1.31172
C    -3.84425  -3.70982  -3.02165
H    -4.73241  -3.16509  -3.33187
H    -3.39929  -4.17188  -3.90245
H    -4.14110  -4.50665  -2.34110
C    -2.34289   0.91905  -1.74520
H    -1.73565   1.39499  -0.95960
H    -2.02197   1.32297  -2.70587
H    -3.38844   1.18187  -1.59225
O     0.93436   0.32828  -1.31974
