64

Ni    0.00000   0.00000   0.00000
N    -1.48506  -0.72580  -1.12529
N     1.03751  -1.48782  -0.84449
C    -2.78855  -0.23435  -1.24014
C    -1.16266  -1.85292  -1.63940
H    -1.87065  -2.46598  -2.19961
C     0.20537  -2.30234  -1.52506
C     1.46463   0.45962   1.07517
C     1.72340  -0.29491   2.21395
C    -2.95456   0.99970  -1.88878
C    -5.14105  -0.36682  -0.84486
H    -5.99562  -0.86816  -0.41733
C    -3.87790  -0.91780  -0.68381
C    -1.74715   1.71676  -2.44447
H    -0.86158   1.37203  -1.88038
C     2.31590  -1.83190  -0.75303
H     2.96082  -1.15494  -0.20843
C     2.82658  -2.99148  -1.31161
H     3.87497  -3.21972  -1.20671
C    -5.32541   0.81248  -1.53933
H    -6.32070   1.21064  -1.66895
C     2.35691   1.44153   0.65000
C    -4.23612   1.49762  -2.04535
H    -4.38868   2.43160  -2.56138
C     2.91790  -0.09234   2.89680
H     3.12227  -0.68657   3.77717
C     0.64181  -3.49333  -2.10687
H    -0.06431  -4.11871  -2.63173
C    -1.54500   1.34108  -3.91446
H    -0.65808   1.83046  -4.31237
H    -1.42485   0.26418  -4.02967
H    -2.40516   1.65239  -4.50420
C     0.72964  -1.31271   2.70742
H    -0.11449  -1.39349   2.00793
H     1.19352  -2.29348   2.81374
H     0.33504  -1.01088   3.67700
C     1.97164  -3.84606  -1.99617
H     2.33801  -4.76200  -2.43444
C    -1.82856   3.23019  -2.26640
H    -0.87473   3.68233  -2.53121
H    -2.59441   3.66718  -2.90203
H    -2.04781   3.46695  -1.22816
C    -3.69799  -2.14062   0.18717
H    -2.64991  -2.45870   0.16965
C     3.53954   1.61977   1.35332
H     4.23909   2.37477   1.02073
C     3.83505   0.85666   2.47551
C     2.02507   2.30283  -0.53719
H     2.92441   2.63797  -1.04985
H     1.39817   1.74705  -1.24563
H     1.46429   3.17806  -0.20585
C    -4.03469  -1.77284   1.63543
H    -3.83959  -2.61755   2.29324
H    -3.42664  -0.92966   1.95697
H    -5.08034  -1.49309   1.73092
C    -4.54463  -3.31769  -0.29969
H    -4.34316  -4.19794   0.30760
H    -5.60499  -3.09182  -0.22776
H    -4.31731  -3.55533  -1.33807
C     5.11321   1.08493   3.22739
H     5.31563   0.26316   3.91024
H     5.95238   1.18795   2.54124
H     5.04367   2.00376   3.81001
O    -0.86970   1.10600   0.86191
