52

Ni    0.00000   0.00000   0.00000
N    -0.55899  -0.57202  -1.79590
C    -2.19493  -3.69483  -2.87750
C     0.29697  -0.23005  -2.69169
H     0.23185  -0.59658  -3.71691
C    -1.40363  -0.96401   0.79351
N     1.42576   1.01785  -1.04449
C     1.35986   0.68304  -2.34702
C    -2.45570  -3.06064   1.25287
H    -2.39976  -4.13891   1.31490
C    -1.55689  -1.49816  -2.12342
C    -2.89113  -1.18230  -1.89808
H    -3.14958  -0.20225  -1.52884
C    -3.69778  -1.03439   1.47160
H    -4.61458  -0.51211   1.71200
C    -1.31734  -2.34805   0.90261
C    -2.57967  -0.29267   1.11124
C    -0.01618  -3.06218   0.65566
H    -0.14386  -3.86976  -0.06392
H     0.73812  -2.36012   0.27467
H     0.35960  -3.48483   1.58712
C    -3.52189  -3.36901  -2.62693
H    -4.28761  -4.11018  -2.80712
C     2.25613   1.19066  -3.28816
H     2.17371   0.89199  -4.32214
C     3.28943   2.41498  -1.52360
H     4.03715   3.09751  -1.15358
C    -1.21434  -2.74659  -2.63593
H    -0.17241  -2.98919  -2.79606
C    -3.88275  -2.11715  -2.14923
C     3.23398   2.07191  -2.86774
H     3.94131   2.48293  -3.57246
C    -3.65392  -2.41839   1.52929
C    -4.87017  -3.22026   1.88951
H    -5.71850  -2.57218   2.09614
H    -5.13510  -3.89257   1.07361
H    -4.67685  -3.82795   2.77238
C     2.36677   1.86020  -0.64872
H     2.38970   2.09260   0.40885
C    -5.31352  -1.76872  -1.87946
H    -5.97703  -2.57513  -2.18043
H    -5.44890  -1.58163  -0.81536
H    -5.59476  -0.86418  -2.41656
C    -2.62989   1.21141   1.07316
H    -3.57149   1.56938   0.65974
H    -2.52271   1.60829   2.08321
H    -1.79956   1.60424   0.46707
C    -1.82701  -5.06074  -3.37240
H    -2.59294  -5.45039  -4.03922
H    -0.87507  -5.04403  -3.89834
H    -1.73576  -5.74684  -2.52953
O     0.57085   0.30856   1.51704
