55

Ni    0.00000   0.00000   0.00000
N     0.62186  -1.26223   1.41896
N    -1.61365   0.15763   1.18679
C    -1.60538  -0.77700   2.06283
H    -2.45935  -0.98222   2.70880
C    -2.75225   0.94304   0.99366
C     2.57557   1.70534  -0.17000
H     1.79652   1.65166   0.60241
H     3.52619   1.93984   0.30481
H     2.31816   2.51457  -0.85473
C    -4.94481   2.61293   0.58612
C     2.64305   0.40779  -0.92774
C    -3.98486   0.38653   0.63232
C     1.53887  -1.56437  -1.79307
C     3.82024  -0.00346  -1.53649
H     4.70337   0.61388  -1.44144
C     2.73386  -1.95001  -2.39030
H     2.75702  -2.86527  -2.96626
C    -0.39956  -1.54861   2.25187
C    -3.70826   3.14282   0.92911
H    -3.59797   4.21206   1.03664
C     3.88110  -1.18264  -2.26720
C     0.29991  -2.40157  -1.96456
H     0.48235  -3.43675  -1.67625
H    -0.51789  -2.00062  -1.35014
H    -0.02238  -2.38428  -3.00508
C    -4.14976  -1.08503   0.38121
H    -4.91891  -1.24599  -0.37050
H    -3.22399  -1.53126   0.02064
H    -4.45423  -1.61030   1.28803
C    -5.05829   1.23946   0.43093
H    -6.00801   0.81670   0.13489
C    -1.27714   2.90224   1.50710
H    -1.24243   3.96937   1.30746
H    -1.07329   2.73617   2.56669
H    -0.48461   2.41211   0.93073
C     1.76892  -1.90811   1.58687
H     2.57191  -1.65224   0.90836
C     0.90333  -3.18493   3.41461
H     1.01610  -3.93638   4.18138
C    -0.29133  -2.51256   3.25561
H    -1.13984  -2.71651   3.89085
C    -2.60604   2.33238   1.12344
C    -6.11918   3.50942   0.34426
H    -6.06741   4.39588   0.97237
H    -6.12304   3.83412  -0.69654
H    -7.05425   2.98923   0.53940
C     1.95731  -2.86825   2.56654
H     2.91192  -3.36069   2.65794
C     1.51004  -0.39462  -1.04209
C     5.16027  -1.59500  -2.93413
H     5.15021  -2.65574  -3.17373
H     5.29195  -1.03815  -3.86217
H     6.01591  -1.38553  -2.29472
O    -0.56117   0.86083  -1.29095
