61

Pt    0.00000   0.00000   0.00000
P     2.11417  -0.52707   0.64158
P    -0.86471   0.92539   1.85743
O     0.74551  -0.85357  -1.73554
O     2.29356  -2.02586  -2.78314
O    -0.17224   2.88186  -0.11286
O    -2.15058   3.88938  -0.30746
C     1.76770  -1.60523  -1.77876
C     2.37067  -2.01086  -0.38063
C     3.41467   0.58821   0.06174
C     3.03821   1.78924  -0.52810
C     4.00398   2.63257  -1.04885
C     5.34101   2.27840  -0.98271
C     5.71674   1.07570  -0.40362
C     4.75808   0.22578   0.11466
C     2.50223  -1.00413   2.34957
C     3.53507  -0.44942   3.09314
C     3.74244  -0.86367   4.39716
C     2.91710  -1.81692   4.96871
C     1.86711  -2.35266   4.23903
C     1.65890  -1.94415   2.93706
C     0.33160   1.41190   3.14257
C     1.29831   2.35129   2.79022
C     2.26828   2.72521   3.70002
C     2.28572   2.15911   4.96515
C     1.33807   1.21178   5.31243
C     0.36562   0.83120   4.40415
C    -2.06857  -0.11967   2.71538
C    -2.19668  -1.43936   2.29929
C    -3.09777  -2.28143   2.92458
C    -3.87345  -1.80487   3.96866
C    -3.75060  -0.48819   4.38560
C    -2.85087   0.35708   3.76311
C    -1.81477   2.49669   1.57635
C    -1.28914   3.09318   0.29636
H     1.78820  -2.84656   0.02136
H     3.41718  -2.31222  -0.47053
H     1.98869   2.04775  -0.58941
H     3.71201   3.56245  -1.51347
H     6.09472   2.93453  -1.39235
H     6.75945   0.79614  -0.36567
H     5.04828  -0.71964   0.55379
H     4.17109   0.30631   2.65616
H     4.55238  -0.43725   4.97030
H     3.08650  -2.13824   5.98549
H     1.21278  -3.08581   4.68707
H     0.83335  -2.34731   2.36286
H     1.28075   2.78132   1.79872
H     3.01326   3.45623   3.42253
H     3.04226   2.45183   5.67770
H     1.35664   0.76246   6.29413
H    -0.36596   0.08438   4.67607
H    -1.59820  -1.78877   1.46268
H    -3.20269  -3.30373   2.59425
H    -4.58154  -2.45823   4.45587
H    -4.36134  -0.11961   5.19647
H    -2.75088   1.38371   4.08732
H    -2.88272   2.28919   1.47543
H    -1.65045   3.19920   2.39812
H    -1.82040   4.17381  -1.17577
O    -1.50054   0.19763  -0.65713
