69

Sc    0.00000   0.00000   0.00000
O    -1.34459   1.74486  -0.15782
N    -1.51459  -1.08433   0.86153
N     1.34942   1.06567   1.12829
N     1.25320  -1.81507   1.12969
Si   -3.08184  -1.53621   0.35252
Si    2.27735   2.45147   0.74967
Si    1.97824  -2.79338  -0.17333
C    -1.04735  -1.62920   2.12418
C     0.21073  -2.49354   1.90625
C     2.20535  -1.08696   1.97183
C     1.73532   0.33714   2.32472
C    -3.30797  -0.94959  -1.45079
C    -4.48079  -0.77000   1.43598
C    -3.39571  -3.43232   0.40833
C     2.22209   3.77890   2.14303
C     1.55425   3.22538  -0.83740
C     4.14786   2.10000   0.46324
C     3.18643  -1.64277  -1.09802
C     0.51372  -3.39321  -1.23953
C     2.92525  -4.28135   0.57415
C    -1.80229   2.35378   1.06494
C    -2.79106   3.45349   0.67231
C    -3.25612   2.99070  -0.70578
C    -1.96285   2.41604  -1.26523
H    -0.82056  -0.81799   2.83580
H    -1.79966  -2.26839   2.60665
H     0.61237  -2.81667   2.87701
H    -0.11299  -3.38315   1.36088
H     2.40523  -1.65088   2.89503
H     3.14619  -0.98290   1.42710
H     2.55980   0.82613   2.86161
H     0.89023   0.28127   3.03006
H    -3.76032  -1.72973  -2.05244
H    -3.95648  -0.08256  -1.51408
H    -2.35233  -0.69824  -1.90729
H    -5.46058  -1.10804   1.11339
H    -4.36351  -1.05948   2.47661
H    -4.48283   0.31642   1.40049
H    -4.42531  -3.66931   0.15971
H    -3.20230  -3.83323   1.39930
H    -2.75834  -3.96639  -0.29060
H     2.77683   4.66856   1.86291
H     2.66335   3.39600   3.05833
H     1.20661   4.08659   2.37853
H     2.32378   3.76401  -1.37839
H     1.15819   2.46164  -1.50393
H     0.76344   3.93394  -0.61286
H     4.71560   3.02046   0.36848
H     4.57144   1.54207   1.29430
H     4.31303   1.51923  -0.44003
H     3.21213  -1.88838  -2.15454
H     4.20310  -1.71895  -0.72271
H     2.86645  -0.60206  -1.01667
H     0.75494  -3.32716  -2.29546
H     0.24520  -4.42515  -1.03176
H    -0.36687  -2.76754  -1.06916
H     3.37309  -4.88806  -0.20533
H     3.72485  -3.95492   1.23255
H     2.26856  -4.92524   1.15153
H    -0.93167   2.73784   1.60923
H    -2.28781   1.56808   1.65826
H    -2.28377   4.41577   0.59345
H    -3.60477   3.54577   1.38781
H    -3.65492   3.79685  -1.31653
H    -4.00593   2.20479  -0.60990
H    -1.30255   3.21940  -1.61955
H    -2.10632   1.68835  -2.06655
O     0.22984  -0.07041  -1.63240
