26

Pd    0.00000   0.00000   0.00000
Cl    0.33545  -0.89487  -2.02596
C    -0.60990   1.28013   1.70398
C    -0.29714   0.02902   2.17042
C     0.97666  -0.41062   2.85580
C     2.26379   0.00361   2.11689
C     2.11920  -0.14062   0.62335
C     2.04436   0.90823  -0.25344
C     2.11514   2.37316   0.10557
C     0.75444   3.00210   0.44511
C     0.20206   2.54536   1.80739
H    -1.66025   1.46199   1.47068
H    -1.13008  -0.66590   2.30387
H     0.95450  -1.50117   2.93443
H     0.99260  -0.01124   3.87510
H     3.07919  -0.64006   2.45596
H     2.52943   1.02951   2.37013
H     2.34561  -1.13368   0.22468
H     2.21756   0.69515  -1.30727
H     2.52754   2.90832  -0.75186
H     2.79644   2.52753   0.94692
H     0.02844   2.75192  -0.34942
H     0.87535   4.08675   0.45501
H    -0.46673   3.32360   2.18382
H     1.01657   2.44117   2.52472
O    -1.59742  -0.33434  -0.24283
