23

Re    0.00000   0.00000   0.00000
Cl   -2.07981  -0.86367  -0.18229
O     0.69885  -1.12201   0.99742
O    -0.67549   1.74320  -0.66343
O    -0.84348   3.95516  -0.41737
N     1.81117   1.24716   0.00223
N    -0.75364   1.20181   1.82592
H    -1.76084   1.04172   1.86175
H    -0.33811   0.87167   2.69317
N     3.60798   2.22377  -0.73919
H     4.43341   2.40890  -1.28713
C     2.80153   1.16274  -0.85625
H     2.91941   0.35571  -1.55282
C     3.09704   3.02806   0.23879
H     3.55253   3.95331   0.52344
C     1.96871   2.41043   0.70326
C     1.05473   2.87949   1.79479
H     1.19224   3.95664   1.89968
H     1.35199   2.40588   2.73717
C    -0.43360   2.59268   1.53653
H    -1.05210   3.29338   2.10840
C    -0.69675   2.83354  -0.00243
O     0.37739  -0.55501  -1.50733
