46

Ti    0.00000   0.00000   0.00000
P    -0.41741   0.89934   2.90052
F     0.11483   0.39755  -1.68568
F    -1.19794  -1.24850  -0.09359
F     1.40306  -1.04275   0.07085
O     0.18877  -0.19458   2.08827
O     1.43096   1.57193   0.34567
N     3.50473   1.13322   1.09668
C     0.41665   2.53457   2.65595
H     0.07101   2.99442   1.72842
H     0.18773   3.18558   3.50023
C     1.91717   2.25532   2.59062
H     2.48373   3.18832   2.67161
H     2.20891   1.60128   3.41774
C     2.26188   1.59540   1.25795
C     3.87771   0.49063  -0.14903
H     3.05624   0.59433  -0.85944
H     4.05589  -0.57269   0.01666
H     4.77720   0.96133  -0.54849
C     4.47496   1.07862   2.16567
H     4.58045   2.04809   2.65343
H     5.43858   0.79956   1.74558
H     4.19733   0.33306   2.91541
C    -0.04582   0.53220   4.64973
C     0.79541  -0.53560   4.93127
H     1.18166  -1.11743   4.10570
C     1.11125  -0.84641   6.24247
H     1.76499  -1.67814   6.45960
C     0.58241  -0.09132   7.27651
H     0.82540  -0.33263   8.30059
C    -0.26626   0.96922   6.99964
H    -0.68489   1.55053   7.80782
C    -0.58105   1.28096   5.68920
H    -1.25238   2.09870   5.47099
C    -2.22466   1.00523   2.82047
C    -2.88801  -0.14885   2.42251
H    -2.30765  -1.01824   2.13887
C    -4.26973  -0.15612   2.35710
H    -4.78866  -1.04589   2.03434
C    -4.98502   0.98224   2.69462
H    -6.06356   0.97874   2.63873
C    -4.32016   2.13162   3.08957
H    -4.88004   3.02127   3.33834
C    -2.93741   2.14780   3.15284
H    -2.41875   3.05250   3.43523
O    -1.01086   1.23335   0.42369
