53

Pt    0.00000   0.00000   0.00000
Cl   -0.88274   0.37282  -2.10660
P     0.37704  -2.18751  -0.36826
N    -0.30490   2.06244   0.36699
H     0.58551   2.51322   0.58530
H    -0.65220   2.44057  -0.51991
C    -1.27699   2.33875   1.43675
H    -0.84347   1.95952   2.37018
C    -2.56419   1.56265   1.13705
H    -3.07974   2.02349   0.29142
H    -2.27720   0.54268   0.83622
C    -3.50006   1.47424   2.33438
H    -4.35194   0.84287   2.09514
H    -3.87535   2.45532   2.61598
H    -2.98223   1.04353   3.18843
C    -1.52028   3.84152   1.55736
H    -0.58709   4.36831   1.74953
H    -2.19836   4.05208   2.37887
H    -1.95860   4.23185   0.63968
C    -0.67082  -3.33205   0.57316
C    -1.38797  -2.84511   1.65978
H    -1.30200  -1.79684   1.91865
C    -2.18724  -3.69783   2.40013
H    -2.74479  -3.31807   3.24350
C    -2.27301  -5.03720   2.05764
H    -2.89642  -5.70394   2.63511
C    -1.56389  -5.52485   0.97074
H    -1.63482  -6.56923   0.70351
C    -0.76595  -4.67699   0.22484
H    -0.22067  -5.05135  -0.63161
C     2.09210  -2.59681   0.05603
C     2.48208  -3.75749   0.70899
H     1.74263  -4.48739   1.00603
C     3.82115  -3.96389   0.99494
H     4.12601  -4.86365   1.50947
C     4.76710  -3.01974   0.63286
H     5.80920  -3.18577   0.86309
C     4.37846  -1.85523  -0.01216
H     5.11587  -1.11385  -0.28300
C     3.04383  -1.64242  -0.29617
H     2.71275  -0.72924  -0.78286
C     0.18401  -2.78967  -2.07117
C     1.26202  -3.08972  -2.89338
H     2.27098  -3.01374  -2.51247
C     1.03997  -3.48477  -4.20170
H     1.87964  -3.71711  -4.84050
C    -0.25086  -3.57390  -4.69348
H    -0.41856  -3.87416  -5.71729
C    -1.32867  -3.26924  -3.87592
H    -2.33538  -3.32970  -4.26198
C    -1.11342  -2.87596  -2.57017
H    -1.94442  -2.62044  -1.92597
O     0.68157  -0.14991   1.49515
