57

Ru    0.00000   0.00000   0.00000
I    -0.96763   2.53307   0.58920
I     2.15484   0.37870   1.70901
P     1.17984   0.91938  -1.64875
N     2.94369   3.05249  -2.31900
N     1.37486   2.30494  -4.03435
N     3.25704   0.92347  -3.47520
C     2.17716   2.44970  -1.21140
H     1.48156   3.19679  -0.80800
H     2.87115   2.17470  -0.40708
C     0.40431   1.65342  -3.16587
H    -0.09483   0.85895  -3.73072
H    -0.36587   2.37588  -2.86562
C     2.57584   0.06116  -2.51848
H     3.29561  -0.30391  -1.77410
H     2.18216  -0.81384  -3.04735
C     3.66404   4.23140  -1.83449
H     2.95364   4.96112  -1.44671
H     4.23830   4.68375  -2.64274
H     4.34088   3.94299  -1.03059
C     1.99300   3.42882  -3.44348
H     1.23601   4.09923  -3.02487
H     2.58493   3.96147  -4.19645
C     3.91227   2.02179  -2.87561
H     4.52811   2.53438  -3.62332
H     4.54214   1.68071  -2.04820
C     2.36829   1.37119  -4.53226
H     2.96296   1.86697  -5.30758
H     1.86393   0.50828  -4.96760
I    -2.15601  -0.37877  -1.70980
P    -1.18142  -0.91848   1.64808
C    -2.17577  -2.45099   1.21163
N    -2.94651  -3.05078   2.31793
C    -3.66525  -4.23077   1.83368
H    -2.95357  -4.96160   1.45036
H    -4.24267  -4.68097   2.64087
H    -4.33901  -3.94421   1.02652
C    -1.99976  -3.42409   3.44666
N    -1.38344  -2.29858   4.03638
C    -0.41032  -1.64901   3.16918
C    -2.58030  -0.05867   2.51155
N    -3.26427  -0.91903   3.46797
C    -3.91719  -2.01875   2.86848
H    -4.53591  -2.52967   3.61495
H    -4.54383  -1.67949   2.03788
C    -2.37872  -1.36389   4.52888
H    -2.97563  -1.85797   5.30356
H    -1.87603  -0.49973   4.96367
H    -3.29785   0.30483   1.76429
H    -2.18830   0.81741   3.03988
H     0.08755  -0.85349   3.73369
H     0.36050  -2.37223   2.87246
H    -1.24156  -4.09596   3.03259
H    -2.59439  -3.95434   4.19921
H    -1.47747  -3.19868   0.81406
H    -2.86651  -2.17980   0.40328
O     0.57591  -1.50590  -0.35084
