35

Pd    0.00000   0.00000   0.00000
Cl    1.22358   1.79491   0.56572
S    -1.02618  -1.98419  -0.84712
O    -0.69605  -2.37288  -4.22819
N     1.68559  -0.92567  -0.52957
H    -0.25965  -1.64586  -4.68662
N     2.92351  -0.45509  -0.43526
H     3.01777   0.47060  -0.00940
C     1.73870  -2.09928  -1.14826
C     3.07769  -2.38214  -1.45633
H     3.44270  -3.25609  -1.95289
C     3.81084  -1.30400  -0.98573
C     5.28011  -1.00281  -1.01297
C     5.50775   0.26278  -1.85096
H     4.98696   1.11532  -1.42235
H     5.15095   0.11519  -2.86794
H     6.56913   0.49381  -1.89010
C     6.04595  -2.17457  -1.62966
H     5.72283  -2.35069  -2.65258
H     5.88993  -3.08193  -1.05153
H     7.11031  -1.95453  -1.64089
C     5.76485  -0.76824   0.42378
H     5.26618   0.08718   0.87201
H     6.83523  -0.57901   0.42598
H     5.56965  -1.64376   1.03892
C     0.49473  -2.88146  -1.38892
H     0.50132  -3.80599  -0.80777
H     0.36511  -3.13204  -2.44276
C    -1.45557  -1.00635  -2.34382
H    -2.31373  -0.41128  -2.01996
H    -0.62024  -0.33179  -2.59073
C    -1.82323  -1.88126  -3.54086
H    -2.37429  -2.76213  -3.20199
H    -2.46814  -1.30809  -4.21945
O    -1.43270   0.73764   0.35462
