31

Pd    0.00000   0.00000   0.00000
S    -1.90615   0.93243   1.09158
Cl    0.85770  -0.84245   1.86121
N    -0.79128   0.86958  -1.61850
N    -0.23019   0.98560  -2.81555
H     0.64178   0.46740  -2.95352
C    -1.87386   1.63992  -1.59790
C    -2.00156   2.26623  -2.84449
H    -2.77494   2.94381  -3.13968
C    -0.92721   1.82255  -3.60319
C    -0.50659   2.18166  -4.99816
C     0.42926   1.10940  -5.56379
H     0.66213   1.33913  -6.60042
H    -0.04026   0.12927  -5.52951
H     1.36531   1.07061  -5.01255
C    -1.74612   2.30472  -5.89023
H    -1.44737   2.53040  -6.91060
H    -2.39820   3.10122  -5.54299
H    -2.30694   1.37324  -5.89300
C     0.22895   3.52846  -4.94139
H     0.55058   3.81754  -5.93842
H     1.10631   3.45723  -4.30291
H    -0.42296   4.30536  -4.54902
C    -2.72597   1.69549  -0.37646
H    -3.64258   1.11854  -0.52055
H    -2.99659   2.71919  -0.11426
C    -0.85953   2.32413   1.63567
H    -1.49266   3.11884   2.02360
H    -0.23920   2.68601   0.81017
H    -0.22595   1.92835   2.42956
O     1.29931  -0.43713  -0.91826
