34

Pd    0.00000   0.00000   0.00000
S    -0.22557  -1.97407   1.24677
Cl    0.28594   1.84750  -1.25778
N    -2.01467   0.25396  -0.15633
N    -2.49196   0.95513  -1.18305
H    -1.79261   1.49162  -1.71481
C     0.27973  -1.19171   2.81076
H     0.00824  -1.83934   3.64049
H    -0.17145  -0.20261   2.91472
H     1.36191  -1.09084   2.74613
C    -2.00490  -2.28495   1.56932
H    -2.34033  -2.87246   0.71416
H    -2.04257  -2.90922   2.46286
C    -2.88697  -1.05119   1.75098
H    -3.87220  -1.37897   2.08979
H    -2.46419  -0.41110   2.53269
C    -3.05421  -0.24734   0.50182
C    -4.23284   0.16147  -0.13483
H    -5.23093  -0.08123   0.16411
C    -3.83472   0.94322  -1.20762
C    -4.61059   1.68072  -2.25812
C    -6.11166   1.48192  -2.04077
H    -6.41242   1.86376  -1.06830
H    -6.37295   0.42822  -2.09996
H    -6.66974   2.01612  -2.80542
C    -4.21127   1.14194  -3.63808
H    -3.15147   1.29499  -3.82429
H    -4.77351   1.65657  -4.41312
H    -4.42471   0.07757  -3.70779
C    -4.26784   3.17366  -2.16507
H    -4.51461   3.55957  -1.17853
H    -4.83788   3.73055  -2.90441
H    -3.21004   3.34508  -2.34689
O     1.63145  -0.21199   0.12627
