35

Pd    0.00000   0.00000   0.00000
Cl    0.81532   0.86243  -1.95065
N     0.97164   1.28524   1.03960
N    -0.96875  -1.28690  -1.03906
C     1.18682   1.65546   2.45851
H     0.35393   2.11959   2.97484
H     1.78245   0.97519   3.05697
C     1.74931   2.27151   1.25692
C     2.58175   3.27478   0.70934
C     3.23803   4.16624   1.57052
H     3.09861   4.07263   2.63754
C     4.05096   5.14985   1.04799
H     4.55701   5.83783   1.70873
C     4.21904   5.25648  -0.32624
H     4.85681   6.02932  -0.72899
C     3.57226   4.37609  -1.18178
H     3.70718   4.46396  -2.24899
C     2.75435   3.38525  -0.67755
H     2.24373   2.69191  -1.33144
C    -1.18274  -1.65614  -2.45829
H    -1.78317  -0.97879  -3.05525
H    -0.34720  -2.11396  -2.97599
C    -1.74016  -2.27783  -1.25715
C    -2.56686  -3.28773  -0.71339
C    -2.73600  -3.40865   0.67302
H    -2.22684  -2.71790   1.33076
C    -3.54925  -4.40624   1.17158
H    -3.68166  -4.50298   2.23831
C    -4.19514  -5.28235   0.31094
H    -4.82975  -6.06005   0.70923
C    -4.03038  -5.16533  -1.06282
H    -4.53570  -5.84977  -1.72773
C    -3.22154  -4.17546  -1.57967
H    -3.08423  -4.07315  -2.64616
O    -0.59431  -0.62105   1.40840
