51

Ti    0.00000   0.00000   0.00000
Cl    1.54855  -1.06531   1.11470
P    -2.31683   0.04787   2.10594
N    -1.49435  -0.39951   0.85271
C    -0.37825  -1.38041  -1.81904
C    -1.16703  -0.22202  -2.00469
C    -0.32578   0.90450  -2.10582
C     1.02561   0.43885  -2.09594
C     0.99224  -0.99079  -1.93671
C     2.19202  -1.72353  -1.94440
C     3.37778  -1.04738  -2.08688
C     3.41254   0.35191  -2.21514
C     2.26054   1.09931  -2.22050
C    -1.48810  -0.38141   3.72690
C    -1.05564  -1.83955   3.61869
C    -0.27862   0.52188   3.93608
C    -2.61317   1.89423   2.10481
C    -3.58561   2.38145   3.17031
C    -3.04860   2.29758   0.69984
C    -4.00797  -0.76247   2.06012
C    -3.91847  -2.03798   1.23011
C    -4.63889  -1.01968   3.42280
H    -0.74561  -2.40049  -1.81134
H    -2.24712  -0.21090  -2.10676
H    -0.64057   1.91594  -2.33805
H     2.17097  -2.80102  -1.84173
H     4.30895  -1.59462  -2.09837
H     4.36977   0.84214  -2.31666
H     2.29225   2.17558  -2.33582
H    -2.19678  -0.25551   4.55121
H    -1.91350  -2.50272   3.52586
H    -0.48655  -2.13546   4.49844
H    -0.42456  -1.96154   2.73471
H    -0.57330   1.54745   4.14941
H     0.35129   0.51186   3.04119
H     0.31466   0.15833   4.77398
H    -1.61988   2.32616   2.28039
H    -3.27990   2.05344   4.16123
H    -4.59306   2.02080   2.97417
H    -3.61387   3.47014   3.16881
H    -2.32869   1.90307  -0.02569
H    -3.07530   3.38201   0.61079
H    -4.03897   1.90914   0.46444
H    -4.63166  -0.04444   1.51152
H    -3.32964  -1.84798   0.33192
H    -4.91154  -2.37982   0.94371
H    -3.42950  -2.83160   1.79010
H    -4.67781  -0.11552   4.02444
H    -4.08514  -1.77720   3.97190
H    -5.65772  -1.38219   3.28925
O     0.40565   1.51395   0.51566
