40

Au    0.00000   0.00000   0.00000
O    -1.48765  -0.10604   6.32160
N    -4.17782   0.12320  -0.89581
N    -2.78226   0.24002   0.94075
C    -1.95237   0.23832  -0.06133
C    -2.79426   0.40233  -1.29288
H    -2.70813   1.44500  -1.62453
H    -2.47711  -0.23475  -2.11676
C    -4.18799   0.41873   0.50781
H    -4.87138  -0.21524   1.07419
H    -4.45321   1.47241   0.67485
C    -4.56869  -1.24950  -1.20909
H    -5.57053  -1.40346  -0.79453
H    -3.88700  -1.98699  -0.75487
C    -2.44596   0.17827   2.30796
C    -3.07979  -0.73357   3.14801
H    -3.82261  -1.41152   2.75551
C    -2.73512  -0.79980   4.47865
H    -3.20801  -1.50896   5.13866
C    -1.75172   0.04376   5.00502
C    -1.12983   0.96340   4.16291
H    -0.37092   1.63313   4.53247
C    -1.47808   1.02738   2.82758
H    -0.99737   1.74553   2.18184
C    -0.47115   0.67925   6.90459
H    -0.41827   0.36391   7.94507
H    -0.71480   1.74509   6.86166
H     0.49474   0.50375   6.42258
C    -4.61775  -1.44322  -2.70056
C    -3.92830  -2.47884  -3.31428
H    -3.34366  -3.16413  -2.71624
C    -3.98601  -2.64074  -4.68832
H    -3.44688  -3.45169  -5.15537
C    -4.72712  -1.76340  -5.45982
H    -4.76998  -1.88854  -6.53141
C    -5.41198  -0.72289  -4.85351
H    -5.98988  -0.03490  -5.45260
C    -5.35894  -0.56456  -3.48139
H    -5.88524   0.24607  -3.00067
O     1.63401  -0.20894   0.09402
