38

Re    0.00000   0.00000   0.00000
O     2.86444  -0.73627   0.90203
O     0.96031   1.14945  -2.70867
O    -0.07340   2.84081   1.21374
N    -0.93997  -0.92729   1.70921
N    -0.41645  -1.98545  -0.65622
C     0.96588  -4.14431  -5.64626
H     0.72122  -3.59778  -6.54546
C     1.61184  -5.34764  -5.71617
H     1.88409  -5.76514  -6.67418
C     1.92823  -6.05244  -4.54432
H     2.43826  -7.00154  -4.61835
C     1.59642  -5.54262  -3.32044
H     1.83977  -6.08066  -2.41530
C     0.56176  -3.76110  -1.96943
H     0.82877  -4.29122  -1.06471
C    -0.07410  -2.54427  -1.89595
C    -0.39362  -1.83594  -3.07524
H    -0.93031  -0.90265  -2.98979
C    -0.06724  -2.35535  -4.29201
H    -0.32255  -1.82098  -5.19499
C     0.60591  -3.59215  -4.40078
C     0.92786  -4.30478  -3.21529
C    -1.09487  -2.70301   0.16732
H    -1.43836  -3.70275  -0.09079
C    -1.44186  -2.15190   1.45332
C    -2.25850  -2.82639   2.36222
H    -2.64244  -3.80255   2.10888
C    -2.57097  -2.21801   3.56116
H    -3.20918  -2.70959   4.27916
C    -2.04795  -0.95719   3.81914
H    -2.26580  -0.44236   4.74079
C    -1.24042  -0.35589   2.86866
H    -0.82095   0.62578   3.04626
C     1.80789  -0.43992   0.56212
C     0.63035   0.71570  -1.70263
C     0.02910   1.79772   0.75725
O    -1.58229   0.25220  -0.39403
