39

Pt    0.00000   0.00000   0.00000
Br   -1.77263   1.62022  -0.46115
Br   -0.38609   0.16171   2.47626
Br   -3.66358  -3.15255   0.03731
N     1.70585  -1.27314   0.29913
N     1.74101   1.46970   0.19773
C     1.75776  -2.56665   0.57111
C     2.87395  -3.33768   0.19566
H     2.85733  -4.39684   0.39823
C     3.94071  -2.74988  -0.42368
H     4.78873  -3.33109  -0.75282
C     3.94753  -1.35468  -0.59653
C     2.79524  -0.64261  -0.20243
C     5.05958  -0.66199  -1.14517
H     5.90637  -1.24403  -1.47512
C     5.05744   0.68882  -1.24056
H     5.90076   1.22049  -1.65434
C     3.94877   1.44561  -0.77874
C     2.80644   0.79011  -0.27639
C     1.77073   2.78785   0.26068
C     2.86153   3.51393  -0.26097
H     2.82740   4.59155  -0.23118
C     3.93098   2.85306  -0.79483
H     4.77164   3.38841  -1.21069
C     0.66460  -3.23659   1.33109
H    -0.00852  -2.51158   1.77664
H     1.10733  -3.83160   2.12877
H     0.10090  -3.91870   0.69531
C     0.64963   3.52301   0.90217
H     0.10773   2.88971   1.59967
H    -0.05516   3.86684   0.14373
H     1.02894   4.39606   1.42847
C    -1.45315  -1.45637  -0.44077
H    -1.90561  -1.16563  -1.39409
H    -0.89956  -2.38639  -0.60018
C    -2.53433  -1.62743   0.58576
H    -3.20241  -0.76901   0.64391
H    -2.18117  -1.89332   1.58010
O     0.37819  -0.04692  -1.60539
