57

Pd    0.00000   0.00000   0.00000
N     1.07720   0.92298   1.40533
N     1.36636   1.79692   3.54320
C     0.65749   1.13452   2.60397
C    -0.70382   0.59610   2.96552
H    -1.19458   0.26753   2.02398
H    -1.31983   1.38568   3.40187
C    -0.61918  -0.60641   3.91419
H     0.19672  -1.25862   3.59475
H    -1.54546  -1.17874   3.82926
C    -0.42890  -0.21688   5.37602
H    -1.27463   0.39578   5.70052
H    -0.43033  -1.12596   5.98074
C     0.86688   0.54587   5.63569
H     1.72049  -0.05830   5.32128
H     0.96081   0.72286   6.70874
C     0.91480   1.89676   4.91355
H    -0.07378   2.36722   4.94519
H     1.61076   2.56068   5.43037
C     2.71256   2.24229   3.23823
H     3.43921   1.45649   3.48759
H     2.93506   3.11895   3.85264
C     2.81332   2.59831   1.76106
H     3.83323   2.88267   1.50563
H     2.14803   3.43677   1.54300
C     2.36878   1.38483   0.95404
H     2.28865   1.64187  -0.11540
H     3.09721   0.56610   1.05228
I    -1.08141   2.29107  -0.64836
N    -1.07896  -0.92515  -1.40258
N    -1.36849  -1.79883  -3.54047
C    -0.65952  -1.13665  -2.60122
C     0.70169  -0.59795  -2.96271
H     1.19232  -0.26935  -2.02102
H     1.31784  -1.38738  -3.39903
C     0.61701   0.60466  -3.91125
H    -0.19895   1.25682  -3.59183
H     1.54325   1.17705  -3.82623
C     0.42684   0.21520  -5.37310
H     1.27257  -0.39748  -5.69757
H     0.42833   1.12428  -5.97781
C    -0.86896  -0.54751  -5.63284
H    -1.72254   0.05668  -5.31841
H    -0.96287  -0.72442  -6.70591
C    -0.91697  -1.89846  -4.91080
H     0.07158  -2.36897  -4.94251
H    -1.61297  -2.56226  -5.42769
C    -2.71475  -2.24402  -3.23546
H    -3.44129  -1.45811  -3.48478
H    -2.93734  -3.12062  -3.84992
C    -2.81554  -2.60007  -1.75830
H    -3.83551  -2.88426  -1.50288
H    -2.15044  -3.43866  -1.54027
C    -2.37071  -1.38675  -0.95115
H    -2.29074  -1.64385   0.11823
H    -3.09900  -0.56788  -1.04943
O     0.68034  -1.44598   0.41083
