28

Re    0.00000   0.00000   0.00000
O     0.31278  -2.90737  -0.97718
O    -2.45989   0.50936  -1.79920
O     1.86889   1.17106  -2.16348
N    -1.41007  -0.78423   1.80854
N     1.89806  -0.29126   1.46836
C     0.20384  -1.81969  -0.62284
C    -1.54606   0.29420  -1.14211
C     1.17441   0.71019  -1.37685
C    -2.82337  -0.46397   1.56957
C    -1.29493  -2.16271   2.28592
C     2.94973   0.71269   1.25869
C     2.50988  -1.62072   1.53298
H    -1.11359  -0.16463   2.57140
H     1.49606  -0.08741   2.38958
H    -3.19929  -1.07060   0.74576
H    -3.42987  -0.66412   2.45996
H    -2.92698   0.58883   1.30952
H    -1.94685  -2.34171   3.14911
H    -1.58327  -2.84701   1.48779
H    -0.26938  -2.38325   2.57932
H     3.41773   0.54696   0.28856
H     2.52320   1.71433   1.27671
H     3.71907   0.64701   2.03579
H     1.75900  -2.38408   1.73167
H     3.27800  -1.66946   2.31372
H     2.97612  -1.84416   0.57359
O    -0.17652   1.42498   0.81289
