49

Ir    0.00000   0.00000   0.00000
Br    2.18650  -0.00006   1.43286
P     1.23937  -0.00004  -2.00010
P     0.10747  -2.33011   0.28321
C    -1.69995  -0.00004  -1.31574
C    -3.10655  -0.00004  -0.74136
C     0.98398  -1.36971  -3.20409
C     3.06490  -0.00004  -1.86252
C     1.72062  -3.15476  -0.03127
C    -0.16712  -2.95931   1.97577
C    -1.05107  -3.41011  -0.64898
H    -1.60557  -0.88098  -1.96060
H    -3.29315   0.87921  -0.12944
H    -3.83233  -0.00005  -1.55946
H    -0.03059  -1.31340  -3.59356
H     1.12447  -2.34172  -2.73996
H     1.68790  -1.26203  -4.02913
H     3.38762   0.87627  -1.30380
H     3.52245  -0.00004  -2.85161
H     1.59740  -4.23313   0.06504
H     2.42902  -2.80403   0.71780
H     2.11880  -2.92727  -1.01653
H    -1.21000  -2.83409   2.25876
H     0.44928  -2.39285   2.67313
H     0.10823  -4.01345   2.01589
H    -0.90906  -4.44857  -0.35278
H    -0.89787  -3.31463  -1.72139
H    -2.06978  -3.10708  -0.41473
P     0.10749   2.33006   0.28320
C     0.98398   1.36963  -3.20408
H    -1.60557   0.88089  -1.96059
H    -3.29315  -0.87930  -0.12944
H     3.38762  -0.87635  -1.30381
C     1.72063   3.15470  -0.03129
C    -0.16709   2.95922   1.97576
C    -1.05108   3.41003  -0.64897
H    -0.03059   1.31331  -3.59356
H     1.12447   2.34164  -2.73996
H     1.68790   1.26195  -4.02913
H     1.59742   4.23307   0.06501
H     2.42904   2.80398   0.71778
H     2.11882   2.92721  -1.01655
H    -1.20997   2.83399   2.25877
H     0.44931   2.39277   2.67312
H     0.10825   4.01336   2.01589
H    -0.90907   4.44849  -0.35278
H    -0.89789   3.31455  -1.72139
H    -2.06978   3.10699  -0.41471
O    -0.96855  -0.00012   1.33582
