29

Mn    0.00000   0.00000   0.00000
N     1.95149  -0.49241  -0.34052
N     0.83559   1.82472   0.05646
C     0.14961  -0.25808   1.74607
O     0.24821  -0.39665   2.88607
C    -0.64589  -1.64684  -0.28380
O    -1.10235  -2.67414  -0.50652
C    -1.68788   0.57351   0.14440
O    -2.78703   0.89748   0.20236
C     2.48605  -1.68886  -0.57266
H     1.82850  -2.54443  -0.48370
C     3.81290  -1.86656  -0.92266
H     4.18747  -2.86058  -1.10531
C     4.64072  -0.75625  -1.03888
H     5.67770  -0.86638  -1.31494
C     4.10205   0.49065  -0.79660
H     4.69539   1.38782  -0.87762
C     2.75331   0.58865  -0.45133
C     2.09025   1.84421  -0.21383
H     2.65240   2.77246  -0.29812
C     0.17787   3.08323   0.28830
H    -0.71447   3.14131  -0.34247
H     0.84810   3.91793   0.04686
C    -0.25802   3.22233   1.76296
H    -0.74820   4.19141   1.88146
H    -0.97223   2.42866   2.01793
O     0.83858   3.22582   2.63788
H     1.11845   2.32056   2.81420
O    -0.10979   0.22375  -1.63107
