41

Au    0.00000   0.00000   0.00000
N    -1.83875  -0.13173  -0.93237
C    -1.13125  -0.09922   1.62888
C    -0.73010  -0.08086   2.95047
H     0.32171  -0.00332   3.18084
C    -1.64867  -0.15823   3.99312
C    -3.00271  -0.25017   3.68589
H    -3.72715  -0.30623   4.48553
C    -3.42682  -0.27046   2.37513
H    -4.48289  -0.34153   2.16334
C    -2.50110  -0.19876   1.33214
C    -2.87130  -0.21989  -0.07273
C    -4.17332  -0.32449  -0.56360
H    -5.00298  -0.40065   0.11998
C    -4.39159  -0.33110  -1.92750
H    -5.39561  -0.41138  -2.31662
C    -3.30704  -0.23459  -2.78928
H    -3.43485  -0.23456  -3.85913
C    -2.04212  -0.13833  -2.24254
H    -1.14970  -0.06336  -2.85036
C    -1.19562  -0.15334   5.41803
H    -1.41903  -1.11288   5.88371
H    -1.71850   0.61770   5.98165
H    -0.12598   0.02480   5.48521
C     1.59550   0.10884   1.01751
C     2.63036   0.17784   1.63113
C     3.81799   0.24694   2.40161
C     4.01139  -0.64831   3.45329
H     3.25066  -1.38899   3.65910
C     5.16311  -0.59954   4.22086
C     6.12474   0.36257   3.92742
H     7.02722   0.40803   4.52059
C     5.93828   1.25477   2.88595
H     6.69585   1.99418   2.66954
C     4.78987   1.20393   2.11849
H     4.63563   1.89242   1.30134
C     5.37104  -1.55310   5.35929
H     5.23973  -1.03639   6.31056
H     6.38022  -1.96045   5.33847
H     4.65981  -2.37430   5.31446
O     0.82583   0.07209  -1.42664
