25

Re    0.00000   0.00000   0.00000
Br    0.72703   2.34668  -0.44355
Br   -1.20477   0.78339   1.95334
O     1.39448  -0.57027   0.68858
N    -1.65730   0.60732  -1.44166
C    -1.41327   0.34451  -2.73864
C    -2.34360   0.66311  -3.72592
H    -2.13683   0.44766  -4.76019
C    -3.53760   1.25943  -3.36648
H    -4.26878   1.51183  -4.11853
C    -3.77469   1.52466  -2.02671
H    -4.68897   1.98811  -1.69593
C    -2.80761   1.18198  -1.10005
H    -2.96447   1.37646  -0.04688
N     0.64766  -0.52334  -1.93675
C    -0.12285  -0.28800  -3.01303
C     0.30845  -0.63682  -4.29266
H    -0.31744  -0.44264  -5.14675
C     1.54256  -1.23296  -4.45917
H     1.88889  -1.50874  -5.44252
C     2.32407  -1.46857  -3.33588
H     3.29397  -1.93110  -3.41221
C     1.83773  -1.09803  -2.09932
H     2.41395  -1.26301  -1.19746
O    -0.88854  -1.38969   0.04176
