41

Pd    0.00000   0.00000   0.00000
Cl   -2.26601  -0.36275   0.08926
C    -0.30534   1.75109  -0.79962
C    -0.01457   3.00407  -0.24775
C     0.56528   3.22986   1.06695
C     0.23256   2.33553   2.09293
H    -0.52752   1.56479   1.92050
C     0.82248   2.45879   3.33682
H     0.55986   1.76966   4.12652
C     1.74602   3.46428   3.57776
H     2.21013   3.55212   4.54861
C     2.07706   4.35047   2.56801
H     2.80329   5.12914   2.74826
C     1.49429   4.23668   1.31870
H     1.79962   4.90732   0.53046
N    -0.79566   2.04583  -2.01792
C    -1.28859   1.09418  -2.98419
H    -1.58290   1.66174  -3.86942
H    -2.16521   0.60192  -2.54532
C    -0.23005   0.04483  -3.31444
H     0.66811   0.51269  -3.71331
H    -0.62583  -0.64966  -4.05014
H     0.03834  -0.52003  -2.40055
N    -0.83607   3.33552  -2.26210
N    -0.35768   3.91639  -1.18938
C    -0.30577   5.34868  -1.13295
H    -1.06307   5.74130  -1.80970
H     0.67258   5.71063  -1.45432
H    -0.50088   5.68276  -0.11503
N     0.32187  -1.75893   0.87374
C     0.07344  -2.91398   0.26729
H    -0.29435  -2.87205  -0.75442
C     0.25952  -4.12929   0.91302
Cl   -0.07060  -5.60071   0.08261
C     0.71061  -4.14552   2.22623
H     0.85812  -5.07968   2.74453
C     0.96280  -2.92916   2.84110
H     1.31524  -2.89302   3.85976
C     0.75966  -1.75824   2.13210
H     0.96505  -0.78322   2.57077
O     1.62693   0.25993  -0.08970
