32

Ti    0.00000   0.00000   0.00000
Cl    1.67095  -1.23122  -0.92483
S    -1.07675  -0.12651   2.14930
P    -0.68015  -2.38247   0.24341
C    -2.77318  -0.81000   2.08908
C    -2.76369  -2.32684   2.19223
C    -2.32005  -2.97199   0.88664
C    -0.54241  -3.57481  -1.15114
C     0.48396  -3.10263   1.45835
C    -1.82901   1.33977  -0.51680
C    -0.63920   2.02632  -0.84133
C    -0.00212   1.32109  -1.88940
C    -0.79683   0.20118  -2.20791
C    -1.92245   0.20644  -1.35661
H    -3.28218  -0.37113   2.94796
H    -3.26736  -0.48019   1.17285
H    -2.08954  -2.61481   3.00219
H    -3.76725  -2.68182   2.44535
H    -3.05982  -2.76535   0.10472
H    -2.25223  -4.05868   1.00712
H    -1.32989  -3.37260  -1.87745
H     0.42629  -3.45519  -1.63125
H    -0.64789  -4.59391  -0.77781
H     0.14395  -4.09649   1.75637
H     1.46871  -3.16810   0.99270
H     0.54748  -2.44619   2.33081
H    -2.58654   1.69335   0.17161
H    -0.32818   2.98085  -0.43429
H     0.89729   1.63003  -2.40880
H    -0.61199  -0.49747  -3.01461
H    -2.77536  -0.45753  -1.43756
O     1.15979   0.76287   0.89186
