32

Pd    0.00000   0.00000   0.00000
O    -0.09721   1.60937  -1.68072
O    -1.22725   1.82568  -3.60678
O    -1.13476  -2.27978  -1.51241
N    -0.86536  -0.93547  -1.47491
C    -0.65028  -1.35853   1.31914
C    -1.07994  -1.02027   2.59823
H    -0.95874  -0.01002   2.96837
C    -1.64891  -1.98087   3.42253
H    -1.97089  -1.70655   4.41629
C    -1.80534  -3.28239   2.97994
H    -2.24621  -4.02792   3.62455
C    -1.40186  -3.62637   1.70204
H    -1.52852  -4.63843   1.34427
C    -0.82611  -2.67108   0.87627
C    -0.40479  -3.01770  -0.53231
H     0.67440  -2.81668  -0.66661
H    -0.62066  -4.05947  -0.77557
C    -1.23484  -0.27242  -2.53820
C    -1.96627  -0.90565  -3.67426
H    -1.37668  -1.72637  -4.08400
H    -2.16612  -0.17378  -4.44926
H    -2.90411  -1.32971  -3.31602
C    -0.81528   1.12448  -2.55463
C    -0.79760   3.19086  -3.66060
H     0.29053   3.22381  -3.54134
H    -1.24821   3.73283  -2.82222
C    -1.23032   3.77141  -4.99220
H    -0.77200   3.22184  -5.80969
H    -0.92564   4.81189  -5.04987
H    -2.31028   3.71128  -5.09434
O     0.83651   0.87354   1.12235
