49

Cd    0.00000   0.00000   0.00000
I     2.39771  -1.28429   0.46372
N     0.51931   1.39838   2.04113
O    -0.49892  -1.11830   2.29837
O     0.93301  -1.53878   3.96509
C     0.95691   2.64387   1.97525
H     0.60160   3.23119   1.13672
C     1.83069   3.18324   2.91193
H     2.17010   4.20165   2.81021
C     2.26225   2.38383   3.95760
H     2.95072   2.76487   4.69681
C     1.80036   1.07940   4.03731
H     2.10835   0.41368   4.82670
C     0.93072   0.62862   3.05092
C     0.38875  -0.75847   3.04814
C     0.55108  -2.91576   3.93712
H     1.31598  -3.42767   4.52366
H     0.58942  -3.26725   2.89998
C    -0.83930  -3.15036   4.52176
H    -1.57261  -2.61260   3.91839
H    -0.87029  -2.74899   5.53706
C    -1.17609  -4.63515   4.53675
H    -2.16711  -4.79162   4.95497
H    -0.45749  -5.18493   5.13977
H    -1.15681  -5.03988   3.52726
N    -0.94547  -2.18779  -0.78054
O    -2.44875  -0.30574   0.48712
O    -3.58699  -1.90679   1.55040
C    -0.23116  -3.10764  -1.40725
H     0.54507  -2.74308  -2.06994
C    -0.44102  -4.46966  -1.23359
H     0.17046  -5.18304  -1.76242
C    -1.43460  -4.88278  -0.36068
H    -1.61712  -5.93350  -0.19005
C    -2.19169  -3.92295   0.29231
H    -2.97833  -4.19094   0.97887
C    -1.91214  -2.58307   0.04683
C    -2.66143  -1.47594   0.70850
C    -4.31339  -0.89661   2.25832
H    -4.74860  -0.20131   1.53241
H    -3.60789  -0.33845   2.88471
C    -5.38974  -1.56917   3.09738
H    -6.00821  -0.78871   3.54253
H    -6.01984  -2.17129   2.44090
C    -4.79381  -2.45064   4.18843
H    -5.58393  -2.92741   4.76261
H    -4.18354  -1.85909   4.86740
H    -4.17105  -3.22457   3.74755
O    -0.16863   1.23020  -1.08658
