24

Cu    0.00000   0.00000   0.00000
O    -5.81991   2.99360   0.63604
S    -1.51564   1.34498  -1.12385
O     5.51373  -3.53632   0.57793
S     1.92408  -0.61678  -1.13478
N    -2.93016   1.11002   1.17607
H    -2.25528   0.51932   1.66430
C    -2.76651   1.57565  -0.05967
N    -3.86364   2.34058  -0.37718
H    -3.96727   2.79976  -1.26972
C    -4.78134   2.39989   0.64758
C    -4.16841   1.55351   1.75650
H    -4.00705   2.14943   2.66009
H    -4.82259   0.71504   2.01487
N     2.44812  -1.96829   1.15529
H     1.60161  -1.68389   1.65058
C     2.75790  -1.59014  -0.08230
N     3.96494  -2.15847  -0.41356
H     4.40626  -2.01604  -1.30974
C     4.48234  -2.93051   0.60240
C     3.45369  -2.82556   1.72156
H     3.05360  -3.81144   1.97799
H     3.89896  -2.39453   2.62351
O    -0.28436  -0.50682   1.54427
