27

C     2.99662  -0.14290  -0.79502
C     2.88643  -1.42574  -0.21664
H     2.25774  -1.54958   0.65251
C     3.56263  -2.48222  -0.75901
H     3.46624  -3.46460  -0.32391
C     4.38288  -2.29554  -1.88906
H     4.91135  -3.12389  -2.32921
C     4.49174  -1.04397  -2.41774
H     5.10130  -0.82117  -3.27978
Cl   -0.15048  -1.30674   1.84076
N     3.81886  -0.01480  -1.86767
H     3.87581   0.91464  -2.27140
S     2.22221   1.25248  -0.24666
Zn    0.00000   0.00000   0.00000
S    -2.22223   1.25245   0.24661
C    -2.99665  -0.14293   0.79496
C    -2.88643  -1.42577   0.21661
H    -2.25769  -1.54964  -0.65249
C    -3.56269  -2.48225   0.75894
H    -3.46628  -3.46462   0.32387
C    -4.38303  -2.29554   1.88893
H    -4.91155  -3.12387   2.32904
C    -4.49190  -1.04395   2.41759
H    -5.10152  -0.82114   3.27959
N    -3.81896  -0.01480   1.86756
H    -3.87592   0.91464   2.27128
O     0.10974  -0.95302  -1.34246
