63

Pt    0.00000   0.00000   0.00000
P    -0.67670  -1.20187   1.88737
Cl    0.50736   1.08392  -2.05466
C     1.15610   2.36694   1.08365
C    -0.15181   0.66532   3.92667
H    -0.23807   1.34037   3.07260
H    -1.12229   0.64715   4.42489
C    -2.10026   4.25385   1.14135
H    -2.50591   5.22370   1.38213
C     2.80411  -0.69742   0.04242
C     1.59487  -1.28302  -0.40368
C    -2.46410   1.99964   0.32187
H    -3.15484   1.26763  -0.07178
C     4.02292  -1.35147  -0.15087
H     4.94472  -0.90900   0.19541
C     0.20830  -0.73736   3.43820
H    -0.00549  -1.48409   4.20745
H     1.27858  -0.78627   3.21274
C     1.65711  -2.49359  -1.07570
H     0.76323  -2.95853  -1.46598
C    -2.96685  -1.64765   3.55229
H    -2.80811  -2.72654   3.51971
H    -2.43185  -1.25626   4.41927
C    -1.12192   1.69627   0.48711
C    -0.75883   3.97334   1.29736
H    -0.10062   4.74554   1.66560
F     2.92173  -4.30521  -1.89525
C    -4.45801  -1.37603   3.72026
H    -5.01375  -1.77579   2.87594
H    -4.64857  -0.30702   3.77922
H    -4.82987  -1.84244   4.62939
C     3.48791   2.72792   1.49302
H     4.29680   3.36656   1.81513
C     2.70303   0.63476   0.63210
N     1.45655   1.11664   0.71261
C     4.06487  -2.57093  -0.79403
H     4.99485  -3.09344  -0.95281
C     3.75981   1.44539   1.04804
H     4.77402   1.08562   1.00541
C     2.87940  -3.11569  -1.25977
C     2.18857   3.20614   1.50247
H     1.98063   4.21538   1.81499
C    -0.26073   2.70921   0.97578
C    -0.43585  -3.01907   1.76180
H    -1.16999  -3.50691   2.40809
H    -0.67539  -3.27923   0.72694
C     0.97291  -3.49498   2.11727
H     1.71287  -2.85809   1.62861
H     1.12862  -3.42584   3.19599
C     1.18272  -4.93717   1.67146
H     1.09072  -5.01859   0.59186
H     0.44515  -5.59227   2.12982
H     2.17356  -5.28180   1.95656
F    -4.24459   3.53295   0.50252
C    -2.93110   3.26103   0.64919
C     0.89850   1.20578   4.88960
H     1.86419   1.28899   4.39452
H     1.00820   0.54698   5.74843
H     0.61237   2.19146   5.24759
C    -2.46066  -0.99224   2.26812
H    -2.64746   0.08550   2.30182
H    -2.99478  -1.39270   1.40127
O    -1.19706  -0.93169  -0.64922
