42

C     1.14221  -1.07517   1.39357
O     2.26566   2.27135   0.13275
Pt    0.00000   0.00000   0.00000
S     1.90996   1.15617  -0.72757
C     1.83189  -2.27135   1.29957
H     1.85436  -2.83059   0.37542
C     2.49412  -2.77225   2.40906
F     3.17317  -3.93095   2.29908
C     2.49142  -2.11588   3.62797
H     3.01515  -2.54305   4.46846
C     1.80260  -0.92500   3.73620
H     1.78698  -0.41342   4.68615
C     1.12902  -0.39615   2.63386
Cl    0.40833  -1.31647  -1.87269
C     0.37678   0.85606   2.69169
N    -0.25169   1.18202   1.55914
C     0.26211   1.71288   3.78603
H     0.75684   1.48386   4.71454
C    -0.49402   2.86550   3.65779
H    -0.58953   3.53908   4.49598
C    -1.12590   3.16316   2.46248
H    -1.71062   4.06174   2.36180
C    -0.98872   2.28297   1.38949
C    -1.57349   2.42690   0.05737
C    -2.41900   3.48288  -0.28704
H    -2.67093   4.24279   0.43654
C    -2.95234   3.56426  -1.55721
H    -3.61072   4.36966  -1.84197
C    -2.63500   2.57713  -2.47453
F    -3.14917   2.65878  -3.71744
C    -1.79962   1.51738  -2.15908
H    -1.59483   0.76652  -2.90844
C    -1.25366   1.42742  -0.89054
C     3.36977   0.09444  -0.92206
H     4.17942   0.68386  -1.33568
H     3.07897  -0.71691  -1.57994
H     3.64061  -0.28605   0.05687
C     1.78174   1.76714  -2.43238
H     0.99187   2.50991  -2.46343
H     1.52820   0.91343  -3.05118
H     2.72877   2.20967  -2.71863
O    -1.33728  -0.83501   0.48675
