25

Hg    0.00000   0.00000   0.00000
Br    1.82683  -1.59237   0.33216
N     0.49603   0.60948  -2.37989
C    -0.17631   1.58124  -2.99302
C     0.08301   1.96944  -4.29597
C     1.08692   1.32185  -4.99793
C     1.78685   0.30828  -4.36343
C     1.45753  -0.01307  -3.05809
N    -1.75169  -1.62482  -0.74762
C    -3.01377  -1.23600  -0.91477
C    -4.01802  -2.09605  -1.32356
C    -3.70099  -3.42162  -1.57259
C    -2.38811  -3.82939  -1.40040
C    -1.45019  -2.89941  -0.98693
H    -0.94935   2.06995  -2.41462
H    -0.49024   2.76523  -4.74430
H     1.31969   1.60175  -6.01468
H     2.57831  -0.22524  -4.86516
H     1.98659  -0.79711  -2.53247
H    -3.22791  -0.19585  -0.70752
H    -5.02530  -1.72889  -1.44134
H    -4.45998  -4.12093  -1.89069
H    -2.09096  -4.85094  -1.57818
H    -0.41725  -3.18501  -0.83880
O    -0.99729   1.26628   0.35277
