23

Pt    0.00000   0.00000   0.00000
I    -1.39286   2.19100   0.00895
O     4.13162   0.92123  -1.21887
O    -4.13065  -0.91421   1.22196
N     1.60995   1.03923  -0.77424
N    -1.60974  -1.03923   0.77427
C     2.41505   1.68952   0.26530
C     3.85735   1.85405  -0.32305
C    -2.41842  -1.68388  -0.26599
C    -3.85948  -1.84731   0.32551
H     1.31161   1.74439  -1.45587
H     2.33063   0.45465  -1.26478
H    -2.32824  -0.45450   1.26794
H    -1.31152  -1.74741   1.45282
H     1.98722   2.64489   0.57080
H     2.47109   1.02481   1.13651
H     3.93992   2.86135  -0.79238
H     4.60639   1.88379   0.49459
H    -2.47547  -1.01551  -1.13436
H    -1.99337  -2.63887  -0.57640
H    -4.61042  -1.87666  -0.49036
H    -3.94148  -2.85445   0.79531
O     0.88556  -1.39222  -0.00300
