62

Zn    0.00000   0.00000   0.00000
N    -0.62793   0.56212  -1.95449
N     0.82794  -1.59071  -1.14161
S     1.38251   1.68575   0.81096
S     3.00595   4.47520  -1.93169
C    -1.32515   1.62276  -2.31262
C    -1.62191   1.87442  -3.66477
H    -2.18013   2.76066  -3.92371
C    -1.21565   0.98766  -4.62532
H    -1.44374   1.15190  -5.66857
C    -0.49826  -0.16206  -4.24780
C    -0.06887  -1.14513  -5.17925
H    -0.30585  -0.99703  -6.22240
C     0.61374  -2.24097  -4.76800
H     0.93475  -2.99336  -5.47295
C     0.93359  -2.42670  -3.39618
C     1.65074  -3.53970  -2.92266
H     1.97296  -4.29925  -3.62014
C     1.93052  -3.64473  -1.58614
H     2.47510  -4.49034  -1.19582
C     1.49944  -2.63775  -0.70492
C     0.53374  -1.46498  -2.44517
C    -0.21075  -0.31983  -2.87653
C    -1.82701   2.52244  -1.24083
H    -1.15971   2.50752  -0.37950
H    -2.80540   2.17122  -0.90769
H    -1.93097   3.54396  -1.59818
C     1.75671  -2.73592   0.75816
H     1.85856  -1.74382   1.19894
H     2.65070  -3.31952   0.96345
H     0.90862  -3.22646   1.24020
C     2.98581   1.45999  -0.04913
H     3.48328   2.42813   0.03763
H     3.55442   0.72648   0.52577
C     2.89822   1.05196  -1.48052
C     2.30670   1.86927  -2.45212
C     2.31288   1.45665  -3.77874
H     1.86279   2.09578  -4.52590
C     2.89817   0.26318  -4.15745
H     2.90625  -0.03061  -5.19676
C     3.48009  -0.54639  -3.19812
H     3.94987  -1.47758  -3.48118
C     3.47219  -0.15239  -1.87330
H     3.94088  -0.78084  -1.12731
C     1.70466   3.18562  -2.09479
H     1.20320   3.14672  -1.12920
H     1.00837   3.52421  -2.86376
C     2.43762   5.30255  -0.39255
H     2.54847   4.59807   0.43169
H     3.13833   6.12816  -0.26661
C     1.02986   5.78298  -0.51133
C     0.69880   6.77067  -1.43275
H     1.47504   7.19362  -2.05460
C    -0.60850   7.20120  -1.55756
H    -0.85534   7.97066  -2.27487
C    -1.60076   6.64936  -0.76250
H    -2.62220   6.98817  -0.85831
C    -1.27906   5.66366   0.15441
H    -2.04787   5.23019   0.77732
C     0.02970   5.22792   0.27722
H     0.27718   4.45559   0.99219
O    -1.34246  -0.65491   0.70100
