25

Re    0.00000   0.00000   0.00000
C     0.92270  -1.50473   0.82866
O     1.54004  -2.36982   1.25146
C    -1.50265  -1.14705  -0.49439
O    -2.36046  -1.79371  -0.88230
C    -0.80599   0.56829   1.67297
O    -1.26439   0.91601   2.66427
C    -1.66463   2.16099  -1.75191
H    -2.59321   1.63110  -1.82944
N    -0.64235   1.73286  -1.04698
N     0.30963   2.66937  -1.22089
C    -0.19645   3.63061  -2.03081
H     0.33372   4.50301  -2.34901
N    -1.42160   3.33162  -2.36526
N     1.65541   1.42878   0.17047
C     1.54686   2.51657  -0.60428
C     2.58029   3.42479  -0.79448
H     2.44769   4.27865  -1.43747
C     3.78167   3.18956  -0.15212
H     4.61053   3.86627  -0.28522
C     3.89878   2.06778   0.65798
H     4.81838   1.84765   1.17407
C     2.81645   1.22016   0.79084
H     2.87369   0.33467   1.40934
O     0.75367  -0.35082  -1.42527
