57

Ni    0.00000   0.00000   0.00000
C    -0.43695   0.70623   1.70449
C    -1.50027   1.14356   3.60475
H    -2.28223   1.09414   4.33316
C    -0.33379   1.82797   3.61864
H     0.07788   2.47828   4.36167
C    -2.61517  -0.41118   1.97307
H    -2.30160  -0.77638   0.98000
C    -3.91188   0.37658   1.81876
H    -3.76056   1.21621   1.14338
H    -4.25144   0.75539   2.78013
H    -4.68638  -0.26426   1.40618
C    -2.75498  -1.60368   2.91359
H    -1.80517  -2.12832   2.99539
H    -3.49973  -2.29405   2.52692
H    -3.06411  -1.28026   3.90500
C     1.59778   2.05598   2.02482
H     1.76566   1.64129   1.01591
C     2.69189   1.54296   2.95568
H     2.67524   0.45525   2.98788
H     2.55182   1.92624   3.96415
H     3.66525   1.86399   2.59483
C     1.56615   3.57769   1.93036
H     0.76301   3.89490   1.26858
H     2.50855   3.94193   1.53043
H     1.41146   4.02333   2.91022
N    -1.54658   0.45945   2.42007
N     0.30639   1.54789   2.44173
Br   -1.06231   1.77913  -1.01154
C     0.43710  -0.70628  -1.70449
C     1.50041  -1.14360  -3.60481
H     2.28238  -1.09421  -4.33322
C     0.33386  -1.82788  -3.61878
H    -0.07785  -2.47808  -4.36187
C     2.61547   0.41089  -1.97304
H     2.30187   0.77619  -0.98001
C     3.91204  -0.37708  -1.81860
H     3.76053  -1.21664  -1.14317
H     4.25162  -0.75602  -2.77992
H     4.68662   0.26366  -1.40600
C     2.75560   1.60332  -2.91360
H     1.80589   2.12810  -2.99557
H     3.50041   2.29360  -2.52685
H     3.06484   1.27983  -3.90496
C    -1.59778  -2.05578  -2.02506
H    -1.76554  -1.64137  -1.01603
C    -2.69181  -1.54228  -2.95576
H    -2.67498  -0.45457  -2.98762
H    -2.55181  -1.92526  -3.96436
H    -3.66522  -1.86325  -2.59500
C    -1.56646  -3.57753  -1.93109
H    -0.76330  -3.89511  -1.26948
H    -2.50888  -3.94169  -1.53115
H    -1.41197  -4.02295  -2.91110
N     1.54676  -0.45956  -2.42008
N    -0.30630  -1.54782  -2.44185
O     0.76047  -1.27336   0.72301
