27

C    -3.17473  -1.14552   2.83210
H    -3.44622  -1.95424   2.15782
H    -4.06100  -0.59976   3.13949
H    -2.70875  -1.57788   3.71675
C    -2.18042  -0.23586   2.15689
C    -2.06582   1.08805   2.59434
H    -2.70571   1.42458   3.39403
C    -1.15600   1.99601   2.03911
C    -1.12332   3.40755   2.56714
H    -0.18306   3.87911   2.29189
H    -1.24848   3.42311   3.64535
H    -1.93929   3.97091   2.11677
C     2.16673   1.69772  -1.49304
H     1.74233   2.69355  -1.68831
H     2.48955   1.24631  -2.44290
H     3.03752   1.80447  -0.82917
C     0.03534  -2.85194  -1.29453
H    -0.51294  -3.53021  -0.62392
H     1.05881  -3.22962  -1.43689
H    -0.47421  -2.81934  -2.26916
O    -1.47771  -0.73360   1.22930
O    -0.36183   1.70993   1.09751
O     1.22969   0.90721  -0.88586
O     0.07250  -1.59312  -0.75969
Cl   -1.89588   0.80837  -1.28677
Nb    0.00000   0.00000   0.00000
O     0.96440  -0.36358   1.28850
