53

Hg    0.00000   0.00000   0.00000
Br   -0.75998  -0.00003   2.33610
P     2.32712  -1.56415  -0.12277
C     3.28628  -0.66730  -1.36139
C     2.37560  -3.24307  -0.80843
C     1.92457  -3.40991  -2.11686
C     1.89817  -4.67251  -2.67750
C     2.30469  -5.76977  -1.93413
C     2.73167  -5.60585  -0.62640
C     2.76243  -4.34603  -0.05561
C     3.46814  -1.64431   1.29215
C     2.93481  -1.64676   2.57611
C     3.77775  -1.71849   3.67045
C     5.14837  -1.78013   3.48531
C     5.67989  -1.77648   2.20504
C     4.84528  -1.71083   1.10598
H     3.80250  -1.24926  -2.11855
H     1.59049  -2.55084  -2.68530
H     1.55266  -4.80156  -3.69233
H     2.28059  -6.75622  -2.37274
H     3.03911  -6.46329  -0.04595
H     3.08939  -4.21513   0.96678
H     1.86347  -1.58748   2.71493
H     3.36247  -1.72052   4.66682
H     5.80673  -1.83049   4.33976
H     6.74959  -1.82599   2.06338
H     5.25576  -1.71045   0.10581
P     2.32708   1.56411  -0.12276
C     3.28632   0.66730  -1.36134
C     2.37558   3.24303  -0.80843
C     3.46811   1.64421   1.29217
H     3.80247   1.24928  -2.11853
C     1.92457   3.40981  -2.11688
C     2.76239   4.34601  -0.05565
C     2.93475   1.64675   2.57611
C     4.84527   1.71061   1.10604
C     1.89816   4.67239  -2.67757
H     1.59048   2.55072  -2.68528
C     2.73163   5.60581  -0.62650
H     3.08935   4.21515   0.96675
C     3.77767   1.71841   3.67048
H     1.86341   1.58757   2.71493
C     5.67986   1.77620   2.20512
H     5.25577   1.71020   0.10588
C     2.30467   5.76967  -1.93424
H     1.55265   4.80139  -3.69240
H     3.03908   6.46327  -0.04608
C     5.14831   1.77992   3.48538
H     3.36237   1.72048   4.66684
H     6.74957   1.82562   2.06349
H     2.28058   6.75610  -2.37289
H     5.80664   1.83020   4.33985
O    -0.17972  -0.00002  -1.64018
