26

Pt    0.00000   0.00000   0.00000
Cl    0.47616  -2.04739  -0.73574
N    -0.42794   1.83970   0.68570
C    -0.01552   2.06664   1.95461
C    -0.23501   3.28557   2.59761
C    -0.89147   4.29040   1.91773
C    -1.30993   4.04797   0.61187
C    -1.06032   2.81737   0.03660
C     0.65803   0.95368   2.55547
N     0.82780  -0.16221   1.87911
C     1.49843  -1.10857   2.60965
C     1.84780  -0.67608   3.90674
S     1.30516   0.95531   4.16963
C     2.53025  -1.49491   4.79123
C     2.86880  -2.76469   4.36925
C     2.53166  -3.20574   3.08981
C     1.85228  -2.39679   2.20590
H    -1.36895   2.58733  -0.97497
H    -1.82475   4.80696   0.04626
H    -1.07563   5.24294   2.38889
H     0.11186   3.41816   3.61062
H     2.78522  -1.14117   5.77764
H     3.40149  -3.42191   5.03903
H     2.80863  -4.20238   2.78390
H     1.58370  -2.72477   1.21277
O    -0.70290   0.26890  -1.46838
