59

Cd    0.00000   0.00000   0.00000
Cl    1.74123  -1.36676  -0.66089
P     0.43998   0.97612  -2.88582
O    -0.48798   1.14440  -1.73851
N     0.09452   2.22230  -3.98856
N     0.10201  -0.40730  -3.75405
N     2.03926   1.27673  -2.52113
C    -1.30066   2.42838  -4.29746
C     1.01870   2.58668  -4.95661
C     0.69205  -0.63365  -5.05618
C    -0.42436  -1.60762  -3.13141
C     2.32871   2.00131  -1.30052
C     3.15212   0.48223  -3.00214
H    -1.89438   2.06605  -3.46000
H    -1.60089   1.89678  -5.20549
H    -1.49078   3.49437  -4.43919
H     2.04787   2.58001  -4.65328
H     0.69255   3.31719  -5.67384
H     1.06099   0.31334  -5.45787
H    -0.07693  -1.02339  -5.73019
H     1.50703  -1.36340  -5.01578
H    -0.95592  -1.34216  -2.21617
H     0.36556  -2.32435  -2.88824
H    -1.13285  -2.07529  -3.81923
H     3.14505   2.70368  -1.48876
H     2.62823   1.32717  -0.48726
H     1.44727   2.56630  -0.99624
H     4.02293   1.13370  -3.11167
H     2.91190   0.05961  -3.97179
H     3.39411  -0.32612  -2.30599
O     0.48893   1.14411   1.73830
P    -0.43864   0.97624   2.88602
N    -0.09278   2.22253   3.98831
N    -0.10082  -0.40729   3.75416
N    -2.03803   1.27662   2.52149
C     1.30256   2.42878   4.29653
C    -1.01648   2.58664   4.95709
C    -0.69037  -0.63321   5.05660
C     0.42434  -1.60796   3.13120
C    -2.32776   2.00165   1.30123
C    -3.15076   0.48187   3.00233
H     1.89593   2.06654   3.45877
H     1.60330   1.89722   5.20441
H     1.49260   3.49480   4.43817
H    -2.04578   2.58003   4.65416
H    -0.69003   3.31752   5.67383
H    -1.05866   0.31403   5.45832
H     0.07871  -1.02328   5.73030
H    -1.50574  -1.36256   5.01667
H     0.95545  -1.34286   2.21558
H    -0.36621  -2.32418   2.88856
H     1.13301  -2.07610   3.81853
H    -3.14411   2.70392   1.48985
H    -2.62741   1.32776   0.48780
H    -1.44641   2.56679   0.99696
H    -4.02135   1.13343   3.11329
H    -2.90999   0.05797   3.97126
H    -3.39339  -0.32554   2.30532
O    -1.24366  -0.97652   0.47140
