19

Pt    0.00000   0.00000   0.00000
Cl   -1.32687  -1.72767   0.50526
N     1.42251   1.50116  -0.44578
N     1.74012  -1.18119   0.35618
C     2.78796   0.93948  -0.34566
C     2.94654   1.62605   1.02117
C     1.69092   2.43235   0.66864
C     2.83572  -0.59064  -0.41569
H     1.16088   1.94012  -1.32685
H     1.93139  -1.18265   1.35638
H     1.53986  -2.14083   0.08013
H     3.47133   1.35300  -1.09597
H     3.86174   2.19293   1.16581
H     2.80034   0.95768   1.86588
H     1.90858   3.44744   0.33051
H     0.89164   2.46017   1.40950
H     3.81955  -0.93444  -0.06883
H     2.71267  -0.89248  -1.45964
O    -1.25129   1.02928  -0.31202
