16

Pt    0.00000   0.00000   0.00000
Cl    0.64024  -1.36542   1.64177
N    -0.61811   1.07309  -1.68528
N    -0.11320  -1.63278  -1.40724
C    -1.05692   0.21002  -2.76245
C     0.19609   0.98689  -2.88070
C    -1.07019  -1.28516  -2.46021
H    -1.11834   1.94551  -1.53546
H    -0.39171  -2.46215  -0.88688
H     0.82183  -1.79837  -1.77369
H    -1.90824   0.53444  -3.35383
H     0.21947   1.84423  -3.54193
H     1.15409   0.49761  -2.76205
H    -2.07363  -1.54182  -2.10846
H    -0.88047  -1.84089  -3.38854
O     0.02621   1.34949   0.94905
