37

Pt    0.00000   0.00000   0.00000
I    -2.13460  -1.43243  -0.65628
N     1.10998  -2.00745   0.30034
N    -0.32612  -0.71381   2.20074
C     1.79346  -2.61262  -0.64977
C     2.45798  -3.82889  -0.40995
H     3.00565  -4.29118  -1.21635
C     2.40219  -4.40303   0.83072
H     2.90584  -5.33566   1.03904
C     1.67471  -3.76603   1.85137
C     1.03576  -2.55147   1.52614
C     1.56385  -4.29216   3.16657
H     2.06617  -5.22254   3.38637
C     0.84758  -3.64459   4.11714
H     0.76222  -4.04345   5.11708
C     0.18674  -2.42113   3.82540
C     0.27710  -1.86691   2.53164
C    -1.03357  -0.05880   3.09817
C    -1.17658  -0.54234   4.41146
H    -1.76595   0.02512   5.11477
C    -0.57152  -1.71430   4.77537
H    -0.66633  -2.10545   5.77786
C     1.85270  -1.98658  -1.99957
H     1.31819  -1.03533  -1.99673
H     1.39718  -2.64573  -2.73767
H     2.88776  -1.81235  -2.28961
C    -1.68679   1.21810   2.69866
H    -1.49105   1.42489   1.64577
H    -1.30052   2.04071   3.29920
H    -2.76268   1.15648   2.85536
C    -0.05519   1.11726  -1.78358
H     0.91244   1.52489  -2.06872
H    -0.58580   0.61829  -2.59181
C    -0.80553   1.78039  -0.78299
H    -1.89125   1.77364  -0.85435
H    -0.39293   2.67965  -0.33023
O     1.37265   0.74549   0.53160
