40

Pt    0.00000   0.00000   0.00000
I    -2.14073  -1.32036  -0.80844
S     1.07528  -1.84486   0.92708
N    -0.85428   1.68394  -0.67932
N     0.90166   0.33265  -2.35764
C    -1.64851   2.36833   0.13649
C    -2.32640   3.51439  -0.29872
H    -2.95941   4.04088   0.39772
C    -2.18758   3.94134  -1.59149
H    -2.71278   4.81249  -1.95277
C    -1.34523   3.23041  -2.46091
C    -0.67190   2.09399  -1.95752
C    -1.16732   3.63123  -3.81337
H    -1.70998   4.49936  -4.15656
C    -0.34512   2.94800  -4.64290
H    -0.21046   3.25106  -5.67076
C     0.37192   1.81688  -4.17284
C     0.21893   1.38305  -2.83603
C     1.74088  -0.32226  -3.12493
C     1.94378   0.02971  -4.47170
H     2.63560  -0.53957  -5.07322
C     1.25846   1.09441  -4.99125
H     1.39097   1.39665  -6.02039
C    -1.81187   1.92024   1.55170
H    -1.72748   0.83310   1.63355
H    -2.77602   2.23306   1.94391
H    -1.02715   2.36754   2.16454
C     2.47789  -1.46806  -2.51681
H     2.38078  -1.43382  -1.43312
H     3.53144  -1.43237  -2.78456
H     2.06619  -2.40910  -2.88166
C     0.49244  -3.46030   0.34108
H     0.67317  -3.51461  -0.72795
H    -0.56770  -3.58290   0.53994
H     1.07194  -4.22256   0.85598
C     0.34640  -1.89600   2.58675
H     0.62404  -0.97905   3.09997
H     0.76276  -2.75147   3.11243
H    -0.73565  -1.98372   2.51628
O     1.19140   0.87286   0.73565
