45

C    -0.79488   1.76257   0.11782
C    -1.61422   2.13172  -1.05282
C    -3.78811   2.59472  -1.79595
H    -4.78769   2.60257  -1.36873
H    -3.56391   3.55611  -2.26501
H    -3.69687   1.80869  -2.54836
C    -0.66386   2.71827   1.16752
C    -1.05154   4.06783   1.02095
H    -1.44455   4.40609   0.07463
C    -0.92345   4.95713   2.05552
H    -1.21895   5.98900   1.94618
C    -0.40613   4.54876   3.29301
C    -0.00932   3.21919   3.45638
H     0.38741   2.87391   4.39824
C    -0.13198   2.33185   2.41290
H     0.15355   1.29754   2.54495
C     0.17113   5.16665   5.51725
H     0.12944   6.08320   6.10317
H    -0.44257   4.40029   5.99974
H     1.20783   4.82175   5.45836
C     0.55407  -1.98398  -0.87838
H    -0.37122  -2.55345  -0.85924
C     1.25691  -1.86404   0.29009
H     0.83699  -2.32277   1.18068
C     2.73193  -1.54687   0.36785
H     3.22923  -1.95234  -0.51405
H     3.15522  -2.05580   1.23607
C     3.01355  -0.03828   0.49885
H     3.02844   0.22881   1.55744
H     4.00575   0.19167   0.09592
C     1.98727   0.84050  -0.18116
H     1.99871   1.86332   0.19340
C     1.49345   0.63517  -1.47149
H     1.08903   1.49573  -1.99555
C     1.96372  -0.47847  -2.38067
H     3.00683  -0.70795  -2.15865
H     1.92315  -0.12770  -3.41303
C     1.09233  -1.74137  -2.26457
H     0.24046  -1.63930  -2.93946
H     1.65975  -2.62042  -2.58959
O    -1.21156   2.20550  -2.19570
O    -2.89920   2.35027  -0.71897
O    -0.33257   5.50471   4.24519
Ir    0.00000   0.00000   0.00000
O    -1.26873  -0.74157   0.75027
