52

Hg    0.00000   0.00000   0.00000
S     4.10268   5.34287   3.63036
O     3.99707   1.07332   1.81119
O     2.13753   2.06478   4.02953
O     5.29668   4.76661   3.09000
O     3.36577   6.21322   2.76600
N     3.08724   4.09695   4.20311
C     1.68884   1.00421   1.26837
C     3.09407   0.56965   0.84083
C     3.55486   1.21670  -0.48040
C     4.22961   2.51575  -0.01128
C     4.08055   2.44722   1.52199
C     2.78672   3.16196   1.98162
C     1.57554   2.52846   1.26044
C     2.63982   3.01715   3.48164
C     3.09019   4.05313   5.65336
C     1.72560   3.78100   6.31995
C     1.54994   4.99302   7.24104
C     2.60424   4.87912   8.35323
C     3.92299   5.23263   7.63483
C     3.46528   5.45634   6.18352
C     2.08874   6.14685   6.37343
C     4.44964   6.09916   5.24486
C     1.29905   6.38712   5.08833
C     2.15440   7.49281   7.09749
H     1.53518   0.64752   2.29181
H     3.19376  -0.52008   0.84711
H     4.26965   0.56633  -0.98161
H     2.71607   1.38887  -1.15713
H     5.28546   2.52350  -0.27462
H     3.76893   3.41147  -0.41971
H     4.94185   2.85741   2.05147
H     2.85876   4.22247   1.73401
H     1.54835   2.92108   0.24209
H     0.65754   2.83793   1.76680
H     3.82877   3.30316   5.96216
H     0.93075   3.71597   5.58186
H     1.73696   2.84092   6.86730
H     0.53418   5.11148   7.61231
H     2.39250   5.56694   9.17036
H     2.62584   3.87272   8.76806
H     4.38455   6.13148   8.04123
H     4.65649   4.42978   7.69957
H     5.48161   5.84811   5.47515
H     4.32770   7.17283   5.14652
H     1.78272   7.14935   4.48256
H     1.20191   5.50287   4.47106
H     0.30003   6.73699   5.34253
H     2.69442   7.45468   8.03581
H     2.62949   8.23722   6.46183
H     1.14315   7.83363   7.30824
O    -1.28013  -0.62706  -0.83100
