55

Pt    0.00000   0.00000   0.00000
O    -1.92553  -0.05173  -0.69209
O    -1.62699   1.05728  -2.62800
O    -3.40244   3.00644  -1.24072
O    -3.72985   2.68679  -5.76378
N    -0.60173   1.60312   1.26875
H    -1.49723   1.43490   1.72168
H     0.16446   1.59078   1.98111
N    -3.49802  -0.15198  -2.22238
H    -3.98067  -0.67935  -1.51297
N    -3.86745   2.63740  -3.46867
C    -0.61315   2.82150   0.45864
H    -0.60343   3.71347   1.09616
H    -1.52980   2.83486  -0.14048
C    -2.27391   0.32010  -1.87382
C    -4.18695   0.20549  -3.43577
H    -4.94190  -0.55467  -3.63873
H    -3.45965   0.21619  -4.25301
C    -4.85572   1.58904  -3.35786
H    -5.55573   1.70614  -4.18819
H    -5.37366   1.71226  -2.40408
C    -3.16483   3.17222  -2.41283
C    -2.11584   4.03990  -3.02438
H    -1.43282   4.61792  -2.42998
C    -2.21486   3.96214  -4.34676
H    -1.62747   4.44770  -5.10328
C    -3.32970   3.03053  -4.68348
N     0.60199   1.60298  -1.26882
H     1.49753   1.43476  -1.72167
H    -0.16416   1.59052  -1.98122
C     0.61327   2.82149  -0.45889
H     0.60345   3.71336  -1.09654
H     1.52992   2.83504   0.14024
Cl   -0.62192  -1.59755   1.50775
O     1.92559  -0.05192   0.69209
O     1.62721   1.05731   2.62788
O     3.40248   3.00631   1.24049
O     3.73015   2.68698   5.76356
N     3.49813  -0.15216   2.22237
H     3.98073  -0.67965   1.51300
N     3.86756   2.63738   3.46844
C     2.27400   0.31989   1.87382
C     4.18719   0.20550   3.43564
H     4.94221  -0.55460   3.63859
H     3.45999   0.21623   4.25297
C     4.85588   1.58908   3.35760
H     5.55601   1.70628   4.18782
H     5.37369   1.71225   2.40374
C     3.16486   3.17209   2.41261
C     2.11578   4.03967   3.02417
H     1.43266   4.61757   2.42976
C     2.21485   3.96195   4.34654
H     1.62740   4.44744   5.10306
C     3.32982   3.03051   4.68326
O     0.44972  -1.15460  -1.08957
