18

C     0.01604  -1.19338   1.43893
C     0.07118  -2.77269   3.44551
H     1.03338  -3.29565   3.45589
H    -0.73568  -3.50581   3.35014
C    -0.10190  -1.93650   4.69389
C    -1.33553  -1.86182   5.32405
H    -2.17565  -2.41797   4.93391
C    -1.49023  -1.07888   6.45503
H    -2.45122  -1.02852   6.94391
C    -0.41699  -0.36176   6.95519
H    -0.53929   0.24926   7.83646
C     0.81339  -0.42750   6.32292
H     1.65204   0.13189   6.70853
C     0.97153  -1.21142   5.19414
H     1.93085  -1.26063   4.69937
Au    0.00000   0.00000   0.00000
N     0.04411  -1.94907   2.31666
O    -0.00600   1.06445  -1.26072
