52

I     2.57832   0.37930   0.09953
C     0.28183  -1.79432   0.73145
C     0.51357  -3.51443   2.10165
H     0.64681  -4.02342   3.03397
C     0.42173  -4.01764   0.83892
C     0.67772  -1.23441   3.11300
H     1.66713  -0.77866   2.97141
H     0.69366  -1.81747   4.03744
C    -0.37885  -0.12457   3.22068
H    -0.45019   0.39381   2.23229
C     0.06797   0.89982   4.25958
H     0.18624   0.42726   5.23296
H    -0.67374   1.68956   4.35272
H     1.01805   1.34865   3.97628
C    -1.73983  -0.71458   3.57605
H    -2.04542  -1.45639   2.84111
H    -2.49863   0.06341   3.59876
H    -1.70188  -1.18908   4.55533
C     0.41782  -5.41162   0.41270
C    -0.33374  -6.33732   1.13040
H    -0.91957  -6.00315   1.97358
C    -0.35917  -7.67207   0.77321
H    -0.95997  -8.35595   1.35131
C     0.38024  -8.11345  -0.32034
C     1.14663  -7.19062  -1.03581
H     1.72562  -7.54680  -1.87286
C     1.16521  -5.86236  -0.67564
H     1.78963  -5.17726  -1.22717
C    -0.31552 -10.37638  -0.08293
H     0.00708 -10.47485   0.95848
H    -0.12213 -11.30988  -0.60867
H    -1.38806 -10.15979  -0.11385
C     0.18915  -2.93142  -1.43103
H    -0.23855  -1.96966  -1.76024
H    -0.45595  -3.74524  -1.76152
H     1.17811  -3.04139  -1.88445
C    -0.21041   1.92558  -2.11380
H    -0.07532   0.99495  -2.66987
C    -0.32837   3.13980  -2.76438
H    -0.28809   3.18206  -3.84113
C    -0.49678   4.28807  -2.00519
H    -0.59159   5.25227  -2.48068
C    -0.53922   4.17410  -0.62442
H    -0.66700   5.04075   0.00439
C    -0.41167   2.91950  -0.05518
H    -0.43512   2.78462   1.02541
N     0.28815  -2.92354   0.00659
N     0.44079  -2.14941   2.01707
N    -0.25240   1.82416  -0.78885
O     0.42952  -9.39527  -0.76399
Pd    0.00000   0.00000   0.00000
O    -1.61828  -0.28347  -0.15270
