35

Re    0.00000   0.00000   0.00000
N    -0.12143  -0.94093   1.99023
N     1.45203   0.98799   1.11242
N     2.31559   1.87750   0.81146
N     3.23673   1.91193   1.77105
O     0.92242   1.25802  -2.66485
O    -1.75041  -2.13698  -1.37963
O    -2.27036   2.01151   0.59639
Cl    7.75198   5.65433   1.27998
C     0.51154   0.81469  -1.69595
C    -1.15332  -1.29147  -0.89304
C    -1.43057   1.26615   0.35108
C    -0.95646  -1.90272   2.36358
H    -1.78206  -2.10811   1.69501
C    -0.80037  -2.62134   3.53669
H    -1.50231  -3.40010   3.78698
C     0.27074  -2.32734   4.36792
H     0.42546  -2.87326   5.28596
C     1.14017  -1.31983   3.99445
H     1.98817  -1.05494   4.60594
C     0.91612  -0.65049   2.79555
C     1.77523   0.40390   2.30014
C     2.93805   1.00398   2.73216
H     3.53799   0.83385   3.59910
C     4.32096   2.79393   1.68186
C     5.26716   2.88922   2.69695
H     5.19347   2.28641   3.58783
C     6.32361   3.77064   2.56976
H     7.06153   3.84863   3.35199
C     6.43370   4.55646   1.43144
C     5.49099   4.46507   0.41561
H     5.58533   5.07855  -0.46575
C     4.43632   3.58472   0.54046
H     3.69379   3.49347  -0.23593
O     1.24118  -1.08105  -0.11533
