33

Hg    0.00000   0.00000   0.00000
Br   -1.65306  -1.04536  -1.44993
O    -4.21416   1.60298   6.73707
O    -5.00276  -0.23416   5.72280
N     0.23666   2.22362  -1.21247
N    -1.35752   1.88049   1.02878
C    -0.34619   3.27736  -0.62490
C    -0.20150   4.57148  -1.12566
H    -0.68388   5.39797  -0.62682
C     0.56433   4.77322  -2.26083
H     0.69381   5.76510  -2.66674
C     1.15841   3.67645  -2.86302
H     1.76249   3.78224  -3.74953
C     0.96275   2.42289  -2.29845
H     1.40993   1.54265  -2.74195
C    -1.15109   3.04801   0.56529
H    -1.59091   3.93681   1.02447
C    -2.08501   1.67294   2.19387
C    -1.95163   2.50293   3.31053
H    -1.25418   3.32709   3.28564
C    -2.66121   2.22424   4.45860
H    -2.56389   2.84562   5.33594
C    -3.51869   1.12707   4.51065
C    -3.64773   0.29560   3.39940
H    -4.30650  -0.55683   3.44416
C    -2.92878   0.55994   2.25380
H    -3.03279  -0.07110   1.38156
C    -4.26372   0.88075   5.77217
C    -5.74122  -0.53943   6.89686
H    -6.24147  -1.48486   6.70415
H    -6.47085   0.24714   7.10061
H    -5.07073  -0.62570   7.75435
O     1.28939   0.21963   1.00585
