33

Hg    0.00000   0.00000   0.00000
Cl   -0.05303   0.93263  -2.08924
O     1.02314   2.11320   0.79716
O     0.85088   3.94727  -0.46274
N     1.33976  -1.80967   1.19674
N     2.65704   0.24844  -0.04677
C     2.63747  -1.60157   1.44407
C     3.34870  -2.39042   2.34846
H     4.39569  -2.19701   2.52662
C     2.68924  -3.41210   3.01098
H     3.21537  -4.03562   3.71850
C     1.34307  -3.61116   2.75223
H     0.78719  -4.38903   3.25043
C     0.71080  -2.77966   1.83531
H    -0.34247  -2.88942   1.61501
C     3.29640  -0.50555   0.74654
H     4.35628  -0.35235   0.97617
C     3.23790   1.23760  -0.80391
C     4.36645   0.95536  -1.57990
H     4.78944  -0.03805  -1.53853
C     4.89878   1.90954  -2.42258
H     5.76694   1.66973  -3.01821
C     4.32232   3.16884  -2.50767
H     4.74000   3.91188  -3.16909
C     3.20495   3.46416  -1.75161
H     2.74140   4.43581  -1.81192
C     2.65145   2.51453  -0.89778
C     1.44266   2.81833  -0.10950
C    -0.39566   4.22217   0.16436
H    -1.11153   3.42909  -0.06922
H    -0.73379   5.17239  -0.24053
H    -0.27544   4.27980   1.24796
O    -1.24912  -0.20848   1.05771
