33

Hg    0.00000   0.00000   0.00000
Cl    0.79764   1.42683   1.60840
N    -1.80987  -0.92962   1.46780
N     0.62111  -2.19509   1.04471
C    -1.41749  -1.93348   2.26273
C    -2.18805  -2.35033   3.35020
H    -1.84297  -3.15980   3.97526
C    -3.38493  -1.70878   3.61459
H    -3.99535  -2.00862   4.45325
C    -3.78306  -0.67654   2.78018
H    -4.70968  -0.15047   2.94430
C    -2.95727  -0.32437   1.72071
H    -3.23266   0.47559   1.04565
C    -0.15874  -2.60039   1.96796
H     0.08197  -3.45885   2.60043
C     1.79369  -2.85130   0.71012
C     1.96947  -4.23219   0.84762
H     1.16052  -4.84669   1.21447
C     3.15370  -4.82078   0.45626
H     3.27236  -5.89055   0.55234
C     4.19772  -4.06250  -0.06466
C     4.01524  -2.68964  -0.20882
H     4.81091  -2.08764  -0.62198
C     2.82957  -2.09236   0.15870
H     2.69202  -1.02037   0.04893
C     5.46217  -4.72061  -0.52810
H     5.67946  -5.58945   0.09624
H     6.29543  -4.02076  -0.44672
C     5.32115  -5.16930  -1.98514
H     4.50730  -5.88357  -2.08541
H     6.24045  -5.63862  -2.32642
H     5.10712  -4.31609  -2.62418
O    -0.23855  -0.36252  -1.59191
