28

Cu    0.00000   0.00000   0.00000
N    -0.21735  -0.27868   1.88789
C    -1.24195   0.32974   2.50177
H    -2.12292   0.49982   1.89963
C    -1.20936   0.73438   3.81410
H    -2.06303   1.22890   4.25130
C    -0.05523   0.51483   4.57649
C     1.00214  -0.14828   3.94149
H     1.91286  -0.35925   4.48058
C     0.87749  -0.51608   2.62361
H     1.68753  -1.02347   2.11948
N     0.00793   0.86328   5.89268
H    -0.67142   1.51956   6.23855
H     0.91320   0.88714   6.33055
N    -0.13839  -0.75538  -1.75881
C    -1.20659  -0.44766  -2.50740
H    -2.11614  -0.22468  -1.96822
C    -1.18536  -0.40429  -3.88054
H    -2.07669  -0.14222  -4.42955
C     0.00393  -0.69002  -4.56240
C     1.11129  -1.03737  -3.77839
H     2.05311  -1.27959  -4.24609
C     0.99454  -1.05450  -2.40981
H     1.84278  -1.31354  -1.79267
N     0.06182  -0.70154  -5.92403
H    -0.67571  -0.24264  -6.43121
H     0.96994  -0.69713  -6.35652
O     0.54109   1.54846  -0.17888
