41

Pd    0.00000   0.00000   0.00000
N    -1.53827   0.29333  -1.17484
C    -2.79697  -0.90702   0.48220
H    -2.19503  -1.81770   0.36460
H    -3.81624  -1.17628   0.74612
H    -2.35929  -0.30604   1.29433
C     1.91882  -3.72772  -0.21294
H     2.59807  -4.25007   0.44532
C     0.53214  -1.79732  -0.71543
C    -2.74924  -0.10902  -0.78376
N     1.60550  -0.33266   1.21444
H     2.42529   0.04237   0.72533
H     1.50735   0.18296   2.09290
C    -3.87940   0.22316  -1.51379
H    -4.84981  -0.11187  -1.18134
C    -2.48641   1.41894  -3.02802
H    -2.34903   2.03770  -3.90144
C    -3.76099   0.99769  -2.66245
C     0.66426  -3.66585  -2.25122
H     0.36399  -4.12747  -3.18181
C    -1.39126   1.05599  -2.26126
C     0.16844  -2.41675  -1.90694
H    -0.52298  -1.92655  -2.58460
C     0.00442   1.50596  -2.56184
H     0.34493   2.15115  -1.73922
H     0.05357   2.06262  -3.49399
H     0.67299   0.63456  -2.61483
C     1.78134  -1.78306   1.43415
H     1.04797  -2.08438   2.19873
C    -4.95547   1.35896  -3.48461
H    -4.86127   2.36854  -3.87756
H    -5.86754   1.28771  -2.89800
H    -5.03977   0.67644  -4.33075
C     1.42628  -2.47815   0.12948
C     1.53861  -4.32159  -1.40491
H     1.92547  -5.29543  -1.66854
C     3.18975  -2.07952   1.95020
H     3.27638  -3.11376   2.26989
H     3.41802  -1.44485   2.80580
H     3.92630  -1.89621   1.16932
O    -0.28203   1.43698   0.76028
