38

Pd    0.00000   0.00000   0.00000
C    -2.16509  -1.40746  -1.24346
C    -2.69574  -1.04531   1.06318
H    -2.45640  -0.64895   2.04467
C    -1.18284  -1.18468  -2.38216
H    -1.44839  -0.24492  -2.89101
C    -4.24289  -2.21457  -0.34933
H    -5.18362  -2.72724  -0.48899
C    -0.65892   2.17634   1.72648
C    -3.90280  -1.70660   0.89048
H    -4.57866  -1.82188   1.72653
C    -3.37406  -2.06351  -1.41699
H    -3.65088  -2.45770  -2.38420
C     0.34906   0.37975   2.80503
C     0.92598  -0.99105   2.63831
H     0.16844  -1.66488   2.21244
H     1.28221  -1.39241   3.58341
H     1.76761  -0.93024   1.93310
C     0.36585   1.07065   4.00835
H     0.78956   0.61210   4.88771
C    -1.80461  -0.87769   0.00772
C    -1.15666   2.70572   0.41800
H    -0.32723   2.69232  -0.30529
H    -1.52985   3.72171   0.51460
H    -1.95563   2.05477   0.03753
C    -0.66979   2.91593   2.90040
H    -1.06755   3.91830   2.90288
C    -0.15707   2.35269   4.05787
H    -0.15521   2.90891   4.98265
C    -1.14162  -2.31511  -3.41111
H    -0.32554  -2.15375  -4.11453
H    -2.06664  -2.35884  -3.97819
H    -0.99504  -3.27355  -2.91533
N     0.15155  -0.98941  -1.77782
H     0.79488  -0.50456  -2.40876
H     0.56516  -1.90209  -1.55790
N    -0.17297   0.93280   1.70730
O     1.50317   0.64181  -0.22596
