38

Pd    0.00000   0.00000   0.00000
N     0.44894  -1.35002   1.46250
H     0.17329  -0.99114   2.38041
H    -0.11438  -2.18649   1.27569
N    -0.40480   1.28677  -1.41323
C     2.14934  -2.99678   2.16978
H     1.71811  -2.94091   3.16867
H     3.21550  -3.17338   2.27650
H     1.70988  -3.84266   1.64333
C     1.88398  -1.69844   1.40734
H     2.43402  -0.87735   1.89361
C     2.27689  -1.73563  -0.06072
C     3.35030  -2.47545  -0.53167
H     3.94426  -3.07342   0.14438
C     3.67419  -2.45004  -1.87794
H     4.51135  -3.02853  -2.24114
C     2.92541  -1.68303  -2.75063
H     3.17620  -1.65991  -3.80211
C     1.85367  -0.93899  -2.27870
H     1.28779  -0.33814  -2.98323
C     1.50709  -0.94429  -0.93132
C     1.27015   2.66029  -0.37313
H     0.82435   2.52322   0.62396
H     1.71532   3.64994  -0.43178
H     2.04887   1.89758  -0.51000
C     0.20129   2.47649  -1.40467
C    -0.17426   3.47088  -2.29653
H     0.32453   4.42689  -2.28004
C    -1.19986   3.22058  -3.19399
H    -1.50988   3.97934  -3.89609
C    -1.83125   1.98764  -3.16789
H    -2.64545   1.76933  -3.84061
C    -2.05600  -0.31139  -2.11647
H    -1.29457  -1.10033  -2.19921
H    -2.82469  -0.46441  -2.86939
H    -2.51238  -0.37752  -1.11803
C    -1.41129   1.03223  -2.25321
O    -1.17286   0.65376   0.95890
