41

Pd    0.00000   0.00000   0.00000
N     1.21297  -0.24646  -1.52222
N    -1.35138   0.24052   1.53568
H    -1.01331   0.93673   2.20520
H    -2.24374   0.56696   1.15690
C    -0.21357  -1.36421   2.94998
H     0.65183  -1.17308   2.29840
H    -0.18772  -2.39860   3.28305
H    -0.15306  -0.71228   3.82035
C    -1.49072  -1.09034   2.15087
H    -2.36387  -1.13431   2.82239
C    -1.61789  -2.08619   1.01802
C    -2.35097  -3.25548   1.13653
H    -2.87674  -3.47508   2.05658
C    -2.40690  -4.14220   0.07431
H    -2.97559  -5.05666   0.16207
C    -1.73187  -3.85093  -1.09731
H    -1.77337  -4.54177  -1.92827
C     1.72806   0.26350  -3.77713
H     1.43049   0.71195  -4.71253
C    -1.00209  -2.67624  -1.21372
H    -0.47996  -2.47720  -2.14393
C    -0.92489  -1.77028  -0.16170
C     2.71681  -1.34411  -0.00354
H     2.61751  -0.52235   0.72001
H     3.72430  -1.74784   0.05078
H     1.99443  -2.12886   0.25197
C     2.41084  -0.81375  -1.36860
C     3.30981  -0.88183  -2.42105
H     4.27203  -1.34757  -2.27368
C     2.97405  -0.34299  -3.65773
C     0.86825   0.30249  -2.69155
C    -0.47073   0.97109  -2.74221
H    -1.25527   0.25628  -2.45278
H    -0.68280   1.36225  -3.73402
H    -0.47437   1.80087  -2.01944
C     3.90780  -0.42489  -4.82147
H     4.93847  -0.51069  -4.48725
H     3.80959   0.45112  -5.45790
H     3.67095  -1.30457  -5.42095
O     0.67431   1.46404   0.35270
