38

Pd    0.00000   0.00000   0.00000
N     0.35482   0.68728  -1.90817
H     0.35267   1.71025  -1.90701
H     1.26955   0.36927  -2.23920
C    -0.63258  -2.80115   0.95732
H     0.31111  -2.71709   0.39935
H    -1.46015  -2.51468   0.29669
H    -0.76583  -3.83049   1.27929
C    -0.57941  -1.86500   2.12262
C    -0.71578  -2.28831   3.43707
H    -0.88414  -3.33161   3.65198
C    -0.62357  -1.35845   4.45954
H    -0.72569  -1.66411   5.48952
C    -0.38514  -0.03197   4.13947
H    -0.28988   0.71408   4.91250
C     0.03496   1.73457   2.37323
H     1.00688   1.74481   1.85709
H     0.07669   2.41193   3.22244
H    -0.73577   2.07680   1.66666
C    -0.25884   0.33196   2.80629
C    -1.90495   0.29307  -0.55197
C    -2.02082   0.36113  -1.94971
C    -0.74269   0.15523  -2.73390
H    -0.78917   0.65752  -3.71393
C    -4.38353   0.72699  -1.79522
H    -5.33925   0.89424  -2.27046
C    -3.24272   0.57643  -2.56563
H    -3.30452   0.62662  -3.64485
C    -3.06552   0.45171   0.19706
H    -3.02644   0.40322   1.28041
C    -0.48480  -1.34059  -2.93533
H     0.38601  -1.50258  -3.56914
H    -1.34734  -1.81662  -3.39467
H    -0.30184  -1.79745  -1.95170
C    -4.29222   0.66379  -0.41650
H    -5.18136   0.78066   0.18768
N    -0.37357  -0.57823   1.83369
O     1.61663  -0.24875   0.21713
