64

Rh    0.00000   0.00000   0.00000
N    -0.13697  -1.52109   1.51567
H    -0.03207  -1.09588   2.45259
N    -1.26569  -1.82021   3.97247
N     1.64549  -1.62775   3.64233
C    -1.46487  -2.13835   1.56325
H    -1.55681  -2.88166   0.76959
H    -2.21304  -1.35819   1.38763
C    -1.69959  -2.76505   2.95337
H    -2.75879  -3.03244   3.05469
H    -1.12892  -3.68953   3.05089
C    -0.36579  -2.35757   4.97369
H    -0.75633  -3.28101   5.43712
H    -0.27181  -1.60748   5.75591
C     1.04873  -2.68727   4.44288
H     1.66177  -2.92394   5.32100
H     1.00288  -3.60191   3.84796
C     2.10627  -2.06304   2.32998
H     2.84680  -2.87748   2.38186
H     2.58125  -1.20247   1.84914
C     0.94258  -2.51825   1.44997
H     1.28293  -2.63112   0.41722
H     0.57846  -3.49513   1.78051
C    -2.35153  -0.98834   4.48227
H    -2.97688  -0.76366   3.61029
C    -3.22938  -1.67930   5.53509
H    -3.58680  -2.64045   5.17132
H    -4.09169  -1.05801   5.76214
H    -2.67315  -1.84393   6.45482
C    -1.82976   0.34389   5.02383
H    -1.09630   0.76671   4.34240
H    -1.37259   0.22670   6.00324
H    -2.65493   1.04474   5.12343
C     2.62471  -0.78279   4.32112
H     2.89833  -0.01028   3.59041
C     2.01106  -0.07345   5.52574
H     1.07922   0.40585   5.24319
H     2.69769   0.68932   5.88529
H     1.82379  -0.76829   6.34027
C     3.91730  -1.50283   4.73556
H     3.71779  -2.28360   5.46601
H     4.60341  -0.78885   5.18319
H     4.40525  -1.95059   3.87367
C    -1.54090   2.51350   0.55025
H    -2.57712   2.16647   0.52676
H    -1.53010   3.46124   1.10097
C    -1.05609   2.73195  -0.89445
H    -1.90940   3.00758  -1.51689
H    -0.34403   3.55704  -0.93894
C    -0.40732   1.48751  -1.46370
H    -0.96188   1.01011  -2.27142
C     0.96330   1.24893  -1.40032
H     1.40375   0.62001  -2.17475
C     1.96216   2.14845  -0.70754
H     2.12228   3.04535  -1.31563
H     2.91579   1.61674  -0.65975
C     1.53506   2.54087   0.72023
H     2.43113   2.69470   1.32562
H     0.99049   3.48610   0.70855
C     0.67233   1.47673   1.36694
H     1.12301   1.00240   2.23772
C    -0.72241   1.48389   1.29777
H    -1.27010   1.03003   2.12458
O    -0.09195  -1.21837  -1.10888
