66

Rh    0.00000   0.00000   0.00000
N     1.90260   0.54995  -0.89235
H     1.65582   1.06524  -1.73106
N     1.43193   0.21169   1.92403
N     1.39527  -2.12919   0.07038
C     2.49144   1.49382   0.05934
H     3.48214   1.83983  -0.28213
H     1.82601   2.35736   0.10988
C     2.64207   0.90478   1.47375
H     3.49276   0.21915   1.49703
H     2.89567   1.73426   2.14115
C     1.68558  -1.16410   2.34982
H     2.39126  -1.20352   3.19593
H     0.72496  -1.57127   2.67423
C     2.24477  -2.08478   1.25877
H     2.34432  -3.07731   1.71565
H     3.25503  -1.77430   0.98386
C     2.14313  -1.93182  -1.16744
H     2.94072  -2.68361  -1.29632
H     1.43476  -2.03200  -1.98992
C     2.80157  -0.54781  -1.26683
H     3.15337  -0.42620  -2.29881
H     3.68745  -0.51293  -0.62760
C     0.68857   0.93646   2.97589
H    -0.20340   0.33093   3.16774
C     1.44540   1.10907   4.29830
H     1.69120   0.15171   4.75015
H     0.80954   1.64977   4.99415
H     2.36379   1.68022   4.17371
C     0.20245   2.28872   2.46448
H     1.01793   2.99800   2.33550
H    -0.50620   2.70943   3.17285
H    -0.31183   2.13368   1.51543
C     0.57273  -3.35301   0.05184
H     0.14554  -3.42001   1.05762
C     1.36270  -4.63640  -0.24086
H     0.72937  -5.49574  -0.03727
H     2.25401  -4.72296   0.37779
H     1.66198  -4.68031  -1.28580
C    -0.59563  -3.23808  -0.92030
H    -1.07529  -2.27143  -0.77839
H    -1.32098  -4.01864  -0.70773
H    -0.27902  -3.34266  -1.95569
C    -1.23774   0.25749  -1.66481
C    -1.21725   1.45887  -0.91048
C    -0.62952   2.76072  -1.41109
H     0.28421   2.61384  -1.99166
H    -0.37654   3.39270  -0.55366
C    -1.62061   3.55125  -2.27996
H    -2.58588   3.59481  -1.77153
H    -1.24791   4.57695  -2.36393
C    -1.82282   3.00864  -3.69697
H    -0.85121   2.86845  -4.17591
H    -2.34429   3.78347  -4.26499
C    -2.63746   1.70943  -3.77425
H    -3.16838   1.56346  -2.83413
H    -3.39118   1.80548  -4.55979
C    -1.81670   0.45658  -4.08360
H    -1.37860   0.54621  -5.08207
H    -2.49891  -0.39674  -4.09825
C    -0.69623   0.17511  -3.07188
H    -0.30122  -0.82427  -3.27671
H     0.11232   0.88945  -3.23302
H    -2.12346  -0.36728  -1.53959
H    -2.07881   1.63403  -0.26456
O    -1.28428  -0.48511   0.91530
