55

Pt    0.00000   0.00000   0.00000
P    -0.79495   2.07058  -0.39368
P     2.03845   0.92188   0.27668
Cl    0.88082  -2.04763   0.53957
C    -1.44895   2.52953  -2.01450
C    -0.69543   3.22198  -2.95711
H     0.29960   3.56574  -2.70849
C    -1.22575   3.46949  -4.21075
H    -0.64411   4.01327  -4.94087
C    -2.49469   3.01608  -4.53266
H    -2.90235   3.21054  -5.51358
C    -3.23587   2.30209  -3.60322
H    -4.21738   1.93383  -3.86159
C    -2.71600   2.05252  -2.34773
H    -3.26908   1.47343  -1.62087
C    -2.05058   2.59139   0.80214
C    -2.98912   3.58684   0.55574
H    -3.01888   4.08021  -0.40634
C    -3.90112   3.92325   1.54037
H    -4.63703   4.69070   1.34951
C    -3.87914   3.27360   2.76401
H    -4.59937   3.53661   3.52448
C    -2.94545   2.27878   3.00998
H    -2.93916   1.76494   3.95951
C    -2.03230   1.93802   2.03084
H    -1.30859   1.14118   2.19004
C     0.57634   3.24360  -0.09169
C     0.37355   4.61763  -0.14636
H    -0.61627   5.00146  -0.34992
C     1.43161   5.48565   0.05480
H     1.26955   6.55240   0.01563
C     2.70242   4.98559   0.29549
H     3.53087   5.66376   0.43726
C     2.91182   3.61930   0.35594
H     3.90660   3.23675   0.53389
C     1.85113   2.73660   0.18099
C     2.95852   1.41625   2.93405
H     3.50282   1.01219   3.78564
H     1.91204   1.52559   3.21566
H     3.35678   2.40371   2.70991
C     3.08286   0.47561   1.74451
H     2.68527  -0.50954   2.02758
C     4.49803   0.27748   1.19374
H     5.01391   1.23691   1.10351
H     5.08433  -0.35689   1.85960
C     4.33196  -0.36183  -0.18173
H     5.28421  -0.45606  -0.70557
H     3.89678  -1.35635  -0.06416
C     3.35357   0.51655  -0.96634
H     3.84563   1.45185  -1.26449
C     2.73960  -0.16049  -2.18417
H     3.51041  -0.46854  -2.88833
H     2.05470   0.51962  -2.69202
H     2.18041  -1.04301  -1.87193
O    -1.51497  -0.59618  -0.26820
