36

Pd    0.00000   0.00000   0.00000
Cl    1.42927  -1.49589  -0.79837
O     0.06735  -8.50133  -0.60622
O     1.61212  -6.87092  -1.11836
N    -1.39226   1.38758   0.50799
N    -1.62979  -1.04953  -0.38476
C    -1.20885   2.62562   0.95754
H    -0.18284   2.90477   1.17067
C    -2.25912   3.50774   1.14271
H    -2.06620   4.50290   1.50849
C    -3.55503   3.09192   0.85067
H    -4.39050   3.76125   0.98602
C    -3.75225   1.80825   0.38382
H    -4.73826   1.44356   0.14203
C    -2.64763   0.96799   0.21778
C    -2.73046  -0.39556  -0.22792
H    -3.70307  -0.85929  -0.38659
C    -1.64519  -2.45691  -0.65030
H    -2.63860  -2.79626  -0.97105
H    -0.90097  -2.67050  -1.42392
C    -1.21869  -3.19593   0.63816
H    -2.01092  -3.10410   1.38430
H    -0.31159  -2.70136   1.01601
C    -0.92811  -4.63954   0.34627
C    -1.85489  -5.62467   0.64588
H    -2.78765  -5.35223   1.11672
C    -1.61635  -6.96946   0.36707
H    -2.33530  -7.73449   0.60675
C    -0.41913  -7.27844  -0.22789
C     1.34261  -8.25390  -1.16108
H     1.36283  -8.60277  -2.20624
H     2.10702  -8.79855  -0.58347
C     0.51826  -6.28881  -0.53834
C     0.28918  -4.96488  -0.26385
H     1.01321  -4.20164  -0.49997
O     1.28006   0.95762   0.40853
