49

Au    0.00000   0.00000   0.00000
S    -8.82582   7.18019   4.65645
N    -2.23598   1.61005   1.20292
N    -0.64101   2.89777   0.46925
C    -2.63767   2.90391   1.46055
C    -1.60508   3.73627   0.98591
C    -6.80031   5.42470   4.43464
H    -7.25058   4.99544   5.31673
C    -2.96359   0.39353   1.51410
H    -2.31460  -0.42126   1.16765
C    -3.88120   4.81980   2.14583
C    -1.70703   5.11740   1.09687
H    -0.92965   5.77808   0.75069
C    -5.67179   4.86385   3.87999
H    -5.22697   3.99687   4.34584
C    -7.37804   6.55820   3.86477
C    -5.08009   5.42089   2.74552
C    -2.84515   5.63716   1.67313
H    -2.93593   6.70684   1.78354
C    -1.02957   1.61523   0.60366
C     0.37917   4.10872  -1.40491
H    -0.26745   3.56194  -2.08749
H     1.32816   4.28907  -1.90171
H    -0.08212   5.06659  -1.18238
C    -4.27584   0.32729   0.73641
H    -4.96750   1.10564   1.04576
H    -4.74513  -0.63817   0.90265
H    -4.08355   0.43689  -0.32847
C    -3.16039   0.24482   3.02086
H    -2.20237   0.31586   3.53095
H    -3.59107  -0.72940   3.23384
H    -3.82260   1.00884   3.41749
C    -6.79854   7.12197   2.73623
H    -7.22211   7.99708   2.27017
C    -5.66121   6.55743   2.19085
H    -5.23318   6.99651   1.30154
C     0.61706   3.28826  -0.13946
H     1.09971   2.34436  -0.42427
C    -3.77663   3.43894   2.04252
H    -4.58430   2.81761   2.39153
C    -9.30994   8.60363   3.63935
H    -9.52441   8.27992   2.62502
H    -8.52960   9.35883   3.65856
H   -10.21203   8.99560   4.09878
C     1.51304   4.00263   0.86945
H     1.09400   4.95708   1.17483
H     2.48794   4.17963   0.42428
H     1.64644   3.38323   1.75348
O     0.84381  -1.32581  -0.50272
