24

Hg    0.00000   0.00000   0.00000
N     0.75004  -0.46641   2.59907
C     1.73295  -1.39142  -0.03480
C     2.06841  -2.00331   1.17732
C     3.20164  -2.80380   1.25164
H     3.45708  -3.27266   2.19190
C     4.00094  -3.00906   0.14157
H     4.87778  -3.63487   0.21604
C     3.67197  -2.40742  -1.05798
H     4.28765  -2.56017  -1.93188
C     2.54712  -1.59956  -1.14378
H     2.31125  -1.13819  -2.09426
C     1.19786  -1.84677   2.40473
H     0.30774  -2.47447   2.27850
H     1.74070  -2.20948   3.29228
C    -0.32420  -0.40501   3.58281
H    -1.17133  -0.99779   3.23989
H    -0.64931   0.62799   3.69236
H    -0.00137  -0.78103   4.56340
C     1.86991   0.35535   3.04436
H     2.67832   0.29468   2.31669
H     2.24864   0.02424   4.02139
H     1.54730   1.39174   3.12680
O    -1.23200   1.05215   0.31249
