43

Fe    0.00000   0.00000   0.00000
P     0.68344   1.13404  -1.73772
P    -0.17115  -1.64187   1.43141
O     0.97856   1.89396   1.91952
O    -2.25319   1.62794   0.82362
C     0.68231   1.09693   1.14483
C    -1.40972   0.94621   0.45068
C     1.76219  -0.97165  -0.37733
C     1.92195  -2.03730  -1.26599
H     1.07382  -2.41235  -1.82166
C     3.14550  -2.65262  -1.47488
H     3.21421  -3.47439  -2.17448
C     4.26974  -2.22115  -0.79586
H     5.22655  -2.69724  -0.95504
C     4.14830  -1.16772   0.09212
H     5.01363  -0.81174   0.63526
C     2.91955  -0.56170   0.29194
H     2.87066   0.25962   0.99632
C     2.09120   2.27075  -1.47356
H     1.85737   2.96117  -0.66351
H     2.29187   2.83373  -2.38565
H     2.97108   1.68885  -1.20116
C    -0.58984   2.28133  -2.38603
H    -0.89479   2.96759  -1.59508
H    -1.45684   1.69881  -2.70213
H    -0.20231   2.84748  -3.23368
C     1.19258   0.31369  -3.28779
H     2.08930  -0.28015  -3.11577
H     1.39579   1.08432  -4.03308
H     0.39078  -0.33561  -3.63928
C     0.07695  -3.38321   0.94012
H    -0.57129  -3.62249   0.09735
H    -0.17543  -4.01925   1.79000
H     1.11556  -3.54290   0.65390
C    -1.83437  -1.75829   2.19171
H    -2.07877  -0.81177   2.67520
H    -1.86617  -2.56398   2.92596
H    -2.56538  -1.95233   1.40503
C     0.89640  -1.54941   2.91313
H     0.71582  -0.61020   3.43562
H     1.93975  -1.58750   2.60144
H     0.68241  -2.38491   3.58047
O    -0.93710  -0.88799  -1.02753
