23

Au    0.00000   0.00000   0.00000
C    -1.65463  -1.12269   0.10147
N    -1.69398  -2.41643   0.20792
C    -0.50062  -3.22191   0.31839
C    -2.90258  -3.22016   0.20812
C    -2.92327  -0.39058   0.06588
C    -3.26323   0.36609  -1.05500
C    -4.42970   1.10450  -1.07061
C    -5.25485   1.13245   0.04312
C    -4.91078   0.40737   1.17089
C    -3.76184  -0.36201   1.18049
H    -0.42125  -3.89250  -0.53897
H    -0.54521  -3.82392   1.22729
H     0.37694  -2.57898   0.35214
H    -2.79894  -4.02607  -0.51950
H    -3.76638  -2.61249  -0.05009
H    -3.05851  -3.66327   1.19321
H    -2.60828   0.35711  -1.91357
H    -4.69005   1.67225  -1.95109
H    -6.15730   1.72439   0.03404
H    -5.54199   0.43359   2.04666
H    -3.49030  -0.91892   2.06612
O     1.37631   0.90290  -0.11427
