26

Zr    0.00000   0.00000   0.00000
Cl   -0.75076  -0.72129   2.07782
C     0.90224  -1.58578  -1.57916
C     0.87925  -2.25730  -0.32332
H     0.33330  -3.16019  -0.07523
C     1.86045  -1.66189   0.50449
H     2.16067  -2.02213   1.48178
C     2.46797  -0.60794  -0.20960
H     3.31261  -0.01859   0.12682
C     1.86772  -0.54195  -1.48620
H     2.18275   0.09711  -2.30512
C    -1.35448  -0.35206  -1.96578
C    -2.21949  -0.56278  -0.85405
H    -2.75077  -1.47362  -0.60316
C    -2.43871   0.68935  -0.23214
H    -3.13902   0.87660   0.57379
C    -1.69407   1.66807  -0.92312
H    -1.72258   2.73499  -0.73652
C    -1.00720   1.02982  -1.97913
H    -0.42920   1.52482  -2.75318
P    -0.35985  -1.57538  -2.92696
C    -1.27758  -3.12501  -2.51140
H    -2.20263  -3.13799  -3.08515
H    -1.50540  -3.20768  -1.44980
H    -0.67089  -3.97407  -2.82153
O     0.67057   1.40131   0.55602
