31

Au    0.00000   0.00000   0.00000
N     0.42056   0.05293   2.04978
C    -0.78781   1.79058   0.42581
C    -1.50464   2.63210  -0.40182
H    -1.74432   2.33505  -1.41024
C    -1.97084   3.85642   0.05812
H    -2.53208   4.49476  -0.60728
C    -1.72011   4.25389   1.35978
H    -2.07304   5.21031   1.71561
C    -1.03217   3.41367   2.21170
H    -0.86184   3.71881   3.23279
C    -0.56907   2.17597   1.76093
C     0.10548   1.22403   2.62979
C     0.41080   1.43203   3.97579
H     0.16805   2.37014   4.44688
C     1.02792   0.43071   4.70026
H     1.26842   0.58323   5.74179
C     1.33330  -0.77069   4.07493
H     1.81117  -1.57706   4.60619
C     1.01164  -0.91269   2.73914
H     1.22858  -1.81675   2.18659
C    -0.35402   0.09531  -2.00101
H    -0.13171   1.09157  -2.37702
H     0.31114  -0.62655  -2.46828
O    -2.63582   0.57087  -2.45668
C    -1.77625  -0.26443  -2.27056
C    -2.06529  -1.74158  -2.32897
H    -3.11378  -1.93117  -2.11333
H    -1.42827  -2.29631  -1.64668
H    -1.85786  -2.08590  -3.34204
O     0.65694  -1.50322  -0.17678
