46

Pt    0.00000   0.00000   0.00000
Cl   -1.36103  -0.03411   1.85166
P     0.98947  -0.12006  -2.08688
C     0.81783   1.32368  -3.16918
C     1.48866   1.38921  -4.38884
H     2.13190   0.57516  -4.69596
C     1.34450   2.50495  -5.19217
H     1.85808   2.55287  -6.14128
C     0.54706   3.56174  -4.78017
H     0.43710   4.42999  -5.41274
C    -0.09958   3.50950  -3.55641
H    -0.71018   4.33815  -3.23078
C     0.03647   2.39389  -2.74961
H    -0.46679   2.33727  -1.79149
C     0.26860  -1.54841  -2.94585
C    -0.02648  -1.58380  -4.30106
H     0.15310  -0.71837  -4.92170
C    -0.58334  -2.72674  -4.85063
H    -0.82168  -2.75062  -5.90385
C    -0.84512  -3.83000  -4.05674
H    -1.28402  -4.71562  -4.49152
C    -0.56402  -3.79216  -2.69928
H    -0.78728  -4.64437  -2.07483
C    -0.01346  -2.65391  -2.14464
H     0.17671  -2.59577  -1.07455
C     2.78220  -0.44838  -2.18777
C     3.28285  -1.74524  -2.23310
H     2.60094  -2.58234  -2.28625
C     4.64917  -1.96342  -2.22427
H     5.03052  -2.97287  -2.26791
C     5.52578  -0.89320  -2.15951
H     6.59133  -1.06642  -2.15250
C     5.03334   0.40119  -2.10397
H     5.71444   1.23779  -2.05307
C     3.66953   0.62359  -2.11274
H     3.28289   1.63393  -2.07806
C     1.63169  -0.57928   1.28441
C     1.76331   0.77522   1.02623
C     1.38468   1.84646   2.00246
H     0.70727   1.46172   2.76036
H     0.90669   2.68328   1.49164
H     2.28642   2.22685   2.48468
H     2.48014   1.09040   0.26521
H     1.24189  -0.90524   2.24151
H     2.26010  -1.29270   0.75728
O    -1.34962   0.00424  -0.94921
