49

Zn    0.00000   0.00000   0.00000
N     1.37146  -1.28648  -0.99858
N     2.32768  -3.67552  -4.91694
N     2.11729  -4.15109  -6.14430
H     1.43506  -3.74412  -6.77948
N     3.72900  -5.74105  -5.76611
H     4.24398  -6.56468  -6.01582
H     3.76063  -5.37211  -4.83202
O     2.62994  -5.64321  -7.75913
C     1.09735  -1.64433  -2.24597
H     0.11025  -1.37661  -2.59360
C     2.00692  -2.31434  -3.06295
C     3.25237  -2.62780  -2.51040
H     3.98376  -3.13937  -3.11630
C     3.52821  -2.25781  -1.20829
H     4.48347  -2.47761  -0.75853
C     2.56130  -1.57863  -0.48410
H     2.73480  -1.24407   0.52854
C     1.67244  -2.68330  -4.43932
C     0.61472  -1.91069  -5.17569
H     0.91424  -1.75435  -6.21219
H     0.45463  -0.93872  -4.72070
H    -0.32985  -2.45593  -5.17308
C     2.83171  -5.23780  -6.63912
Cl   -1.17840   0.78723  -1.70153
N    -1.37137  -1.28651   0.99866
N    -2.32735  -3.67574   4.91692
N    -2.11702  -4.15115   6.14437
H    -1.43541  -3.74355   6.77990
N    -3.72864  -5.74112   5.76631
H    -4.24464  -6.56422   6.01650
H    -3.76012  -5.37248   4.83207
O    -2.63008  -5.64278   7.75969
C    -1.09727  -1.64425   2.24611
H    -0.10992  -1.37729   2.59340
C    -2.00680  -2.31439   3.06303
C    -3.25222  -2.62800   2.51045
H    -3.98366  -3.13932   3.11647
C    -3.52812  -2.25793   1.20839
H    -4.48357  -2.47718   0.75888
C    -2.56122  -1.57879   0.48415
H    -2.73498  -1.24356  -0.52819
C    -1.67233  -2.68335   4.43941
C    -0.61449  -1.91082   5.17577
H    -0.91422  -1.75419   6.21227
H    -0.45429  -0.93892   4.72055
H     0.33011  -2.45625   5.17338
C    -2.83060  -5.23850   6.63887
O     0.87799   0.58676   1.26781
