65

C     0.77819   2.44260   1.30663
H     1.47229   3.07079   1.86493
C    -0.38930   3.13586   0.67685
H    -0.02538   3.81577  -0.10154
H    -0.86689   3.76877   1.44327
C     2.04274   0.57174   1.85678
C     2.06422   0.48669   3.25169
C     3.15249  -0.12419   3.85755
H     3.17049  -0.20086   4.93548
C     4.20658  -0.64326   3.12175
C     4.14428  -0.57902   1.73486
H     4.94261  -1.00819   1.14570
C     3.07146   0.00953   1.09167
C     0.90333   0.97564   4.06438
H     0.97717   0.60835   5.08463
H    -0.03004   0.61678   3.62903
H     0.86699   2.06492   4.09713
C     5.38900  -1.26869   3.79733
H     6.23407  -0.57906   3.78815
H     5.69326  -2.17592   3.27904
H     5.16104  -1.51414   4.83145
C     2.97188   0.03258  -0.40697
H     3.09048   1.04511  -0.79705
H     1.98047  -0.35450  -0.72206
H     3.73139  -0.60291  -0.85593
C    -2.09252   2.56994  -1.01514
C    -1.47631   2.73050  -2.26111
C    -2.25095   3.07708  -3.35885
H    -1.76956   3.20496  -4.31879
C    -3.62224   3.24227  -3.25940
C    -4.22442   3.02095  -2.02728
H    -5.29809   3.11589  -1.94252
C    -3.48510   2.68594  -0.90648
C    -0.01752   2.43921  -2.43894
H     0.19472   2.19851  -3.47799
H     0.25197   1.57434  -1.81501
H     0.61513   3.27909  -2.15219
C    -4.45261   3.60316  -4.45442
H    -5.02160   2.73647  -4.79171
H    -3.82629   3.94191  -5.27591
H    -5.16176   4.39083  -4.20609
C    -4.16742   2.42704   0.40537
H    -5.24084   2.56658   0.30690
H    -3.80660   3.10618   1.17823
H    -3.98536   1.40466   0.73895
C    -0.97077  -1.00500  -1.25732
C    -2.77644  -1.83888  -2.87676
C    -2.26922  -2.72047  -4.02242
H    -1.53770  -2.18026  -4.61909
H    -3.09788  -3.01147  -4.66243
H    -1.79900  -3.61789  -3.62736
C    -3.79229  -2.59862  -2.01680
H    -3.35026  -3.51376  -1.63060
H    -4.66837  -2.85063  -2.60871
H    -4.09555  -1.98390  -1.17311
C    -3.39314  -0.54377  -3.41990
H    -3.71249   0.09279  -2.59851
H    -4.25044  -0.77461  -4.04686
H    -2.66334   0.00778  -4.00757
Ir    0.00000   0.00000   0.00000
N     0.96319   1.18252   1.18723
N    -1.32574   2.18913   0.10172
H    -1.90592   1.78011   0.82898
N    -1.68299  -1.49563  -2.05792
O    -1.07988  -0.39083   1.18474
