65

C     0.05675  -2.39057  -1.59133
H     0.45437  -3.02667  -2.38189
C    -0.87087  -3.04416  -0.61369
H    -0.31713  -3.79526  -0.04001
H    -1.63832  -3.59303  -1.18430
C     1.20065  -0.57548  -2.48799
C     0.73896  -0.40670  -3.79607
C     1.59213   0.16900  -4.72674
H     1.23753   0.30921  -5.73804
C     2.87526   0.57342  -4.39409
C     3.29750   0.42985  -3.07737
H     4.28371   0.77114  -2.79533
C     2.47436  -0.12721  -2.11716
C    -0.66902  -0.76909  -4.16164
H    -1.35750  -0.37782  -3.41173
H    -0.80418  -1.84961  -4.21729
H    -0.92746  -0.34513  -5.12844
C     3.78708   1.18748  -5.41249
H     3.98045   2.23088  -5.16435
H     3.34638   1.14576  -6.40519
H     4.74402   0.66741  -5.43181
C     2.90463  -0.23498  -0.68210
H     3.06694  -1.27493  -0.39305
H     2.12249   0.19848  -0.02385
H     3.82376   0.31990  -0.51011
C    -1.80239  -2.44086   1.60147
C    -3.14036  -2.39885   2.01683
C    -3.45168  -2.70427   3.33146
H    -4.48507  -2.67392   3.64779
C    -2.47162  -3.04829   4.25203
C    -1.14904  -3.03938   3.83597
H    -0.36888  -3.26411   4.55076
C    -0.79532  -2.72820   2.53160
C    -4.22066  -1.99586   1.05596
H    -5.19109  -2.02657   1.54440
H    -4.25254  -2.66393   0.19495
H    -4.05320  -0.98037   0.69476
C    -2.82518  -3.36088   5.67519
H    -2.15657  -4.11558   6.08372
H    -3.84908  -3.71903   5.75036
H    -2.73455  -2.46401   6.28953
C     0.65168  -2.59875   2.16509
H     0.77346  -1.73498   1.49550
H     1.03737  -3.48347   1.65890
H     1.25199  -2.43391   3.05685
C    -0.38892   0.91510   1.59662
C    -1.41843   1.49971   3.87439
C    -0.76517   0.60695   4.93572
H     0.28623   0.86082   5.05021
H    -0.84352  -0.43684   4.63934
H    -1.26491   0.74256   5.89133
C    -1.29158   2.97886   4.25302
H    -1.73496   3.60093   3.47943
H    -0.24473   3.25410   4.35968
H    -1.80231   3.16859   5.19340
C    -2.88836   1.11026   3.68204
H    -2.96241   0.05550   3.42805
H    -3.32541   1.69006   2.87312
H    -3.44605   1.29749   4.59612
Ir    0.00000   0.00000   0.00000
N     0.37864  -1.15512  -1.50105
N    -1.46490  -2.07590   0.28720
H    -2.22716  -1.58459  -0.17050
N    -0.74829   1.29140   2.65352
O    -1.38455   0.55147  -0.70810
