57

Pd    0.00000   0.00000   0.00000
P     1.66731  -0.13656  -1.49044
Cl   -1.46640  -0.23943  -1.73797
N     2.43831   0.90656   1.47137
N     1.27091  -0.48649   2.62178
O    -1.56327  -3.93484  -1.07610
C     1.30189   0.18623   1.46309
C     3.11478   0.69103   2.64540
H     4.04257   1.17508   2.87187
C     2.37493  -0.18435   3.36789
H     2.54647  -0.60146   4.33911
C     2.95948   1.55716   0.29495
H     3.86413   2.10466   0.57349
H     2.21775   2.27196  -0.08715
C     3.26926   0.50038  -0.77709
H     3.81876  -0.32513  -0.31623
H     3.87679   0.93824  -1.57340
C     1.34760   1.19896  -2.68766
C     1.89347   1.19522  -3.96604
H     2.50168   0.36067  -4.28796
C     1.63728   2.24808  -4.82656
H     2.05114   2.23805  -5.82431
C     0.84517   3.30705  -4.41477
H     0.64183   4.12292  -5.09243
C     0.30009   3.31521  -3.14042
H    -0.32829   4.13507  -2.82558
C     0.54637   2.26383  -2.27698
H     0.07772   2.24813  -1.28472
C     2.11613  -1.56658  -2.50451
C     3.41148  -2.04438  -2.66999
H     4.24862  -1.54340  -2.20643
C     3.63366  -3.16976  -3.44455
H     4.64122  -3.53767  -3.57503
C     2.57368  -3.82229  -4.05167
H     2.75701  -4.70054  -4.65320
C     1.28119  -3.34969  -3.88547
H     0.45205  -3.85878  -4.35291
C     1.04972  -2.22930  -3.11123
H     0.04466  -1.85525  -2.96146
C     0.31552  -1.54945   2.85640
H    -0.68964  -1.11592   2.91093
H     0.56448  -2.04124   3.79974
C     0.41545  -2.51119   1.68565
C    -0.67523  -2.71138   0.83623
H    -1.62494  -2.24132   1.07249
C    -0.55916  -3.59042  -0.24717
C     0.67161  -4.21112  -0.49262
H     0.74862  -4.87453  -1.33913
C     1.74819  -3.98551   0.33580
H     2.69017  -4.47340   0.13298
C     1.62577  -3.14607   1.43225
H     2.46878  -2.98678   2.09059
C    -2.82463  -3.31199  -0.91499
H    -3.44813  -3.70617  -1.71518
H    -2.74242  -2.22674  -1.02150
H    -3.27060  -3.56437   0.05187
O    -1.18878   0.50959   1.02451
