53

Pd    0.00000   0.00000   0.00000
Cl   -2.19577   0.22865   0.03092
N     2.01397  -0.19752  -0.24023
N    -0.01312  -1.46505  -1.43405
O     4.94587  -1.89404  -3.52797
O     2.75495  -1.70338  -4.04671
O     3.32544  -3.55435  -0.79255
O     3.10762  -4.86878  -2.62089
C     2.95799   0.61821   0.22921
H     2.65871   1.25681   1.05341
C     4.23325   0.65063  -0.30557
H     4.98202   1.29847   0.12070
C     4.50773  -0.10957  -1.43496
H     5.45806  -0.03618  -1.94097
C     3.52490  -0.95337  -1.93754
C     2.30445  -1.03260  -1.25259
C     1.22580  -1.95405  -1.61605
C     1.42819  -3.26265  -2.07025
C     0.33234  -3.97584  -2.53958
H     0.48048  -4.97503  -2.91993
C    -0.92654  -3.39585  -2.47661
H    -1.79460  -3.91241  -2.85233
C    -1.06387  -2.16487  -1.85791
H    -2.03250  -1.70912  -1.68395
C     3.68525  -1.58732  -3.28737
C     5.37190  -2.36874  -4.84171
C     5.17691  -1.24622  -5.85958
H     4.12282  -0.99712  -5.95075
H     5.54329  -1.56847  -6.82981
H     5.72481  -0.35699  -5.55388
C     4.60231  -3.62125  -5.24990
H     4.59066  -4.34596  -4.43967
H     5.08023  -4.06918  -6.11648
H     3.57382  -3.37750  -5.50029
C     6.85638  -2.68043  -4.65647
H     7.37971  -1.80551  -4.27888
H     7.29305  -2.96648  -5.60831
H     6.98543  -3.49554  -3.94994
C     2.73129  -3.98093  -1.90057
C     4.51050  -4.19726  -0.24429
C     4.16068  -5.62617   0.16745
H     3.32514  -5.62195   0.86406
H     5.01787  -6.08814   0.64853
H     3.88915  -6.21589  -0.70452
C     5.65959  -4.17940  -1.24797
H     5.44240  -4.83696  -2.08529
H     6.56772  -4.52227  -0.75958
H     5.81693  -3.17021  -1.62127
C     4.84719  -3.34294   0.97747
H     5.10686  -2.33319   0.66889
H     5.68508  -3.77646   1.51472
H     3.98905  -3.28980   1.64219
O     0.12643   1.06922   1.25032
