21

Mo    0.00000   0.00000   0.00000
Cl   -1.96343   1.00177  -0.55598
O     0.70078   1.24921   0.79400
O    -0.57156  -1.20788   0.94696
O     0.47788   1.15593  -2.14538
O    -0.78425  -1.25535  -1.99390
C     1.63862   1.97392  -2.13154
C     0.39346   0.34241  -3.30370
C    -0.87357  -0.49864  -3.18977
C    -1.92741  -2.06778  -1.77093
H     1.61181   2.53225  -1.19508
H     1.61581   2.66427  -2.98189
H     2.54723   1.36235  -2.16978
H     1.27581  -0.31391  -3.36333
H     0.34041   0.97976  -4.19789
H    -1.75736   0.15732  -3.15053
H    -0.95033  -1.17834  -4.05040
H    -1.76169  -2.58083  -0.82288
H    -2.02703  -2.79806  -2.58147
H    -2.83395  -1.45554  -1.70484
O     1.35259  -0.75183  -0.57250
