62

Ru    0.00000   0.00000   0.00000
Cl    1.48547  -0.41391   1.83951
P     1.16342   1.70605  -1.13436
P     1.27402  -1.40082  -1.38033
O     2.36011  -1.91235  -4.54746
O     2.04053   2.77118  -4.26605
O    -1.64191  -2.28265   1.04474
O    -1.47205   2.06907   1.59943
C     1.53193   0.96618  -2.75165
C     1.65937  -0.38087  -2.83101
C     2.06928  -0.80299  -4.18819
C     2.07791   0.46097  -5.03271
H     2.99250   0.56647  -5.61836
H     1.24216   0.43837  -5.73673
C     1.89265   1.59942  -4.04568
C     0.27961   3.25535  -1.42377
C     0.33641   4.18424  -0.38513
H     0.92564   3.95926   0.49695
C    -0.35372   5.37597  -0.48745
H    -0.31076   6.09507   0.31699
C    -1.10359   5.64265  -1.62284
H    -1.64382   6.57419  -1.70366
C    -1.16839   4.71519  -2.64911
H    -1.75957   4.92222  -3.52857
C    -0.48471   3.51597  -2.55395
H    -0.55686   2.78523  -3.34498
C     2.85938   2.28299  -0.78224
C     3.38050   3.38085  -1.46443
H     2.77035   3.91636  -2.17761
C     4.68268   3.77483  -1.22389
H     5.08862   4.62638  -1.74965
C     5.46671   3.08041  -0.31388
H     6.48451   3.39363  -0.13303
C     4.94593   1.99123   0.36353
H     5.54995   1.45167   1.07751
C     3.64248   1.58655   0.13095
H     3.22768   0.74904   0.67597
C     2.91195  -1.89506  -0.78828
C     2.93920  -2.83447   0.24037
H     2.00814  -3.25707   0.59756
C     4.14547  -3.20690   0.79930
H     4.16776  -3.93138   1.59919
C     5.32465  -2.63918   0.34060
H     6.26734  -2.92626   0.78210
C     5.29711  -1.69978  -0.67608
H     6.21543  -1.25360  -1.02851
C     4.09252  -1.31932  -1.24132
H     4.07450  -0.57557  -2.02706
C     0.58303  -2.91362  -2.10294
C     1.39392  -3.97995  -2.48148
H     2.46373  -3.92316  -2.34425
C     0.82073  -5.10679  -3.03956
H     1.44845  -5.93376  -3.33620
C    -0.55171  -5.17718  -3.22108
H    -0.99250  -6.06133  -3.65722
C    -1.35862  -4.11593  -2.84542
H    -2.42761  -4.16823  -2.98792
C    -0.79546  -2.98380  -2.28526
H    -1.42181  -2.14741  -1.99947
C    -1.03347  -1.40881   0.64316
C    -0.92520   1.26466   1.01041
O    -0.91931   0.32260  -1.33165
