70

Ru    0.00000   0.00000   0.00000
P     0.88501   1.36119  -1.83673
P     0.95500   1.71293   1.32935
O     1.34056   5.03240   1.70894
O     1.07718   4.55079  -2.96353
O    -0.38069  -0.27810   2.76740
O     2.04202  -2.08184   0.68355
O    -1.50998  -1.76014  -1.90297
C     1.04859   3.15656   0.23290
C     0.92470   3.01998  -1.11159
C     0.98029   4.33859  -1.78275
C     0.96403   5.37613  -0.67474
H     1.74086   6.13089  -0.80649
H     0.00365   5.89753  -0.66154
C     1.13816   4.58418   0.61145
C     2.64335   1.31858  -2.33375
C     3.11641   2.11631  -3.37185
H     2.43422   2.74708  -3.92334
C     4.46247   2.09669  -3.68601
H     4.83117   2.71304  -4.49256
C     5.33804   1.29577  -2.96804
H     6.38878   1.28913  -3.21726
C     4.86725   0.50422  -1.93382
H     5.54491  -0.12179  -1.37264
C     3.52061   0.51440  -1.61726
H     3.14086  -0.10659  -0.81490
C    -0.00217   1.55624  -3.39841
C    -1.08580   2.41993  -3.51715
H    -1.38568   3.03218  -2.67897
C    -1.78539   2.47643  -4.70840
H    -2.62186   3.15248  -4.80488
C    -1.42159   1.66619  -5.77128
H    -1.97279   1.71389  -6.69878
C    -0.35847   0.78544  -5.64466
H    -0.08374   0.14454  -6.46963
C     0.34786   0.72302  -4.45935
H     1.17630   0.03434  -4.34604
C     0.23210   2.46098   2.81679
C    -1.12133   2.78471   2.77515
H    -1.70136   2.56844   1.88701
C    -1.72038   3.37422   3.87198
H    -2.77077   3.62470   3.83908
C    -0.97587   3.64109   5.00916
H    -1.44542   4.10163   5.86609
C     0.36993   3.31742   5.04852
H     0.95070   3.52775   5.93472
C     0.97932   2.72573   3.95741
H     2.03011   2.47840   3.99209
C     2.69606   1.42767   1.75483
C     3.75168   2.12774   1.18453
H     3.56209   2.93516   0.49032
C     5.05361   1.78417   1.50635
H     5.87358   2.32823   1.06099
C     5.30453   0.74829   2.38987
H     6.32260   0.48400   2.63470
C     4.25136   0.04842   2.96013
H     4.44754  -0.76017   3.64833
C     2.94938   0.38169   2.64073
H     2.11324  -0.15569   3.07138
C    -0.91580  -0.59767   1.73259
C    -2.25629  -1.29468   1.69993
H    -2.13844  -2.24484   1.16859
H    -2.93114  -0.66908   1.10506
C    -2.82932  -1.52028   3.09546
H    -2.16170  -2.15068   3.67767
H    -3.80274  -1.99992   3.03196
H    -2.93534  -0.56987   3.61267
C     1.30033  -1.25263   0.40059
C    -0.91981  -1.15357  -1.13606
O    -1.24827   1.04149  -0.28219
