42

Rh    0.00000   0.00000   0.00000
Cl    1.54189   1.31277  -1.12781
Cl   -1.50469  -1.21144   1.37466
O    -2.69363   0.87046  -0.26099
O     0.93374   0.99992   2.52610
N    -1.55616   0.66602  -1.04766
N     0.10605   1.44743   1.46073
N     1.45080  -0.70566   1.14463
C    -1.71583   0.95028  -2.28103
C    -3.01633   1.42392  -2.85601
C    -2.66933   1.84977  -4.28204
C    -1.49023   0.94819  -4.64712
C    -0.68517   0.85882  -3.34964
C    -0.26252   2.65941   1.56896
C    -1.07372   3.36454   0.53989
C    -0.97486   4.83937   0.93838
C    -0.82030   4.79817   2.45879
C     0.07781   3.58279   2.69409
C     1.61366  -0.11888   2.26144
C     2.53682  -0.52547   3.36032
H     1.98584  -1.55064   0.95761
H    -3.45646   2.21687  -2.25110
H    -3.71534   0.58357  -2.84717
H    -2.35458   2.89467  -4.29008
H    -3.50995   1.73945  -4.96451
H    -0.90048   1.34305  -5.47163
H    -1.85134  -0.04271  -4.92456
H    -0.09327  -0.05168  -3.26037
H     0.00315   1.70162  -3.25331
H    -2.10567   3.00738   0.58549
H    -0.68939   3.15786  -0.45994
H    -1.84463   5.41157   0.62316
H    -0.08717   5.28333   0.48645
H    -1.79157   4.63520   2.92772
H    -0.39344   5.71446   2.86141
H     1.13490   3.85116   2.61045
H    -0.06676   3.10853   3.66499
H     2.87430  -1.54727   3.21466
H     3.39954   0.13944   3.37284
H     2.02668  -0.43741   4.31664
H    -2.62866   0.17976   0.45513
O     0.11964  -1.27371  -1.04204
