41

Pd    0.00000   0.00000   0.00000
Cl    1.92488   1.16398  -0.11411
P    -2.02567  -0.90858   0.33984
C    -2.79711  -2.28052  -0.55808
C    -3.82151  -2.14758  -1.48770
C    -4.29961  -3.26686  -2.14746
C    -3.75166  -4.51345  -1.89671
C    -2.70584  -4.64445  -0.99524
C    -2.22315  -3.53239  -0.33395
N    -1.05675   1.37963  -1.12961
C    -0.42642   2.05558  -2.08934
C    -1.10537   2.74203  -3.08141
C    -2.49075   2.72111  -3.08064
C    -3.14209   2.02482  -2.07467
C    -2.39972   1.36535  -1.10535
C    -3.04676   0.61113   0.01468
C    -1.12075  -0.11492   6.63442
O    -1.03705   0.11420   5.23385
C    -1.76331  -0.69169   4.45690
O    -2.49475  -1.55061   4.87364
C    -1.54685  -0.37223   2.99416
C    -2.40062  -1.27164   2.10252
H    -4.24610  -1.17844  -1.70610
H    -5.10136  -3.16320  -2.86385
H    -4.13066  -5.38164  -2.41456
H    -2.26370  -5.61284  -0.81639
H    -1.38487  -3.61190   0.34681
H     0.65823   2.05212  -2.03600
H    -0.55472   3.27583  -3.83856
H    -3.05517   3.23604  -3.84273
H    -4.22040   1.99460  -2.03613
H    -4.10212   0.40668  -0.17338
H    -2.96960   1.21310   0.92866
H    -0.79261  -1.12863   6.87111
H    -2.14910   0.01191   6.97917
H    -0.46674   0.61685   7.10065
H    -0.47984  -0.52956   2.76419
H    -1.76011   0.69109   2.84101
H    -3.46856  -1.13531   2.30043
H    -2.14834  -2.31571   2.30424
O     0.78313  -1.24078   0.75476
