24

Pt    0.00000   0.00000   0.00000
Cl    2.38946  -0.44164   0.20316
Cl    0.32510   2.20145  -0.01763
O     2.38459  -2.55373   1.94210
N     3.35196  -3.04301  -0.13504
N     2.01849  -4.66697  -1.08649
N    -0.16943  -2.04143  -0.15034
N    -0.31029  -3.85475  -1.41226
N     4.31350  -4.94661  -1.05291
C     3.23990  -4.19930  -0.73743
C     0.92293  -3.84970  -0.82515
C     0.99019  -2.73936  -0.02887
C     2.19171  -2.39391   0.76291
C    -0.93821  -2.73466  -0.96185
C    -0.83793  -4.83651  -2.31826
H     4.26922  -2.72750   0.14797
H     1.91138  -5.56322  -1.53479
H    -1.93365  -2.44575  -1.23555
H    -0.87925  -5.81861  -1.84213
H    -1.84575  -4.54331  -2.60310
H    -0.22266  -4.89695  -3.21862
H     5.23366  -4.63340  -0.79842
H     4.23447  -5.79205  -1.58945
O    -1.62219   0.18650  -0.23711
