32

Rh    0.00000   0.00000   0.00000
N     0.44884  -1.99281   0.24816
N    -0.11396  -2.90602  -0.42790
N    -1.03905  -2.51444  -1.23915
H    -1.19684  -1.47113  -1.30467
C    -1.06804   0.00008   1.50656
O    -1.74216  -0.00337   2.43489
C    -0.24303   1.78515  -0.44170
O    -0.30677   2.85362  -0.83142
C     1.47456  -2.38412   1.10787
C     2.24921  -1.37814   1.68926
H     2.03481  -0.33372   1.43801
C     3.28168  -1.70573   2.54445
H     3.88165  -0.92524   2.98748
C     3.54870  -3.03567   2.83216
H     4.35461  -3.29097   3.50328
C     2.78233  -4.03755   2.25604
H     2.99305  -5.07260   2.48008
C     1.74963  -3.72222   1.39576
H     1.14752  -4.49514   0.94458
C    -1.74439  -3.36276  -2.07319
C    -1.53998  -4.74129  -2.03771
H    -0.81304  -5.14832  -1.35364
C    -2.26629  -5.55920  -2.88051
H    -2.10767  -6.62661  -2.85418
C    -3.19394  -5.01795  -3.75702
H    -3.75796  -5.66278  -4.41311
C    -3.39458  -3.64703  -3.79168
H    -4.11366  -3.22267  -4.47559
C    -2.67578  -2.81659  -2.95394
H    -2.82403  -1.74671  -2.97967
O     0.92741  -0.06921  -1.36295
