42

Pd    0.00000   0.00000   0.00000
N     0.06558   2.89464  -0.39303
N     0.26689   1.99157   0.47216
N    -0.29135   2.45514  -1.56092
C    -0.57770   3.26871  -2.64005
C    -1.15289   4.85362  -4.86428
C    -0.40046   4.65009  -2.57864
H    -0.04551   5.09458  -1.66293
C     0.94847   1.60939   4.03317
H     0.95745   0.81587   4.76622
C     1.25636   2.90812   4.42530
C    -1.32630   3.47479  -4.91156
H    -1.69108   3.01450  -5.81800
C     0.60274   2.34756   1.76867
C    -1.04329   2.68457  -3.81592
H    -1.19168   1.61476  -3.85725
C     1.22836   3.92056   3.46855
H     1.46295   4.93254   3.76583
C     0.62759   1.32468   2.72191
H     0.35912   0.30113   2.41695
C     0.90410   3.65554   2.15555
H     0.87997   4.44157   1.41722
C    -0.68832   5.42464  -3.68307
H    -0.55243   6.49500  -3.63023
C     1.60926   3.22639   5.84463
H     2.61800   3.63415   5.90174
H     1.55724   2.33886   6.46943
H     0.92699   3.97510   6.24482
C    -1.43862   5.70737  -6.06066
H    -1.87870   6.65619  -5.76192
H    -2.11584   5.20364  -6.74565
H    -0.51257   5.92212  -6.59534
C     0.02913  -2.01058  -0.65499
H    -0.57546  -2.81142  -0.24077
H    -0.05682  -1.89091  -1.74034
C     1.98048  -0.57959  -0.48287
H     2.02809  -0.38671  -1.55680
H     2.86854  -0.28332   0.06405
C     1.24281  -1.68415  -0.02332
H     1.49079  -2.13529   0.93817
H    -0.48303   1.41520  -1.63780
O    -1.63116   0.23430   0.08320
