58

C     2.15695   2.06006  -1.24424
H     2.59091   2.43528  -0.31606
H     2.45543   2.74446  -2.05624
C     2.68836   0.65445  -1.52342
H     3.77477   0.65830  -1.63492
H     2.24165   0.29529  -2.45381
C     2.12229  -2.14437  -1.04125
H     2.05221  -2.88983  -0.23850
C     0.82394  -2.20410  -1.84491
H     0.59726  -3.22316  -2.15497
H     0.88447  -1.58470  -2.73909
H    -0.01473  -1.84361  -1.22930
C     3.32625  -2.47878  -1.91591
H     3.16905  -3.44731  -2.38940
H     4.24359  -2.53947  -1.33563
H     3.46122  -1.74063  -2.70306
C     3.71520  -0.63009   0.84135
H     4.49356  -1.03630   0.18528
C     4.18206   0.72945   1.35117
H     5.03756   0.60516   2.01441
H     3.39006   1.22263   1.91122
H     4.48523   1.37828   0.53277
C     3.48481  -1.58599   2.00697
H     4.37704  -1.65320   2.62834
H     3.24355  -2.58606   1.65429
H     2.66051  -1.23320   2.62218
C     0.13757   3.11034  -0.31723
H    -0.92629   3.14368  -0.55203
H     0.58859   4.07597  -0.60280
C     0.30394   2.90499   1.19290
H    -0.16727   3.73240   1.72670
H     1.36624   2.89331   1.44686
C     0.59461   1.03997   3.31982
H     1.62352   1.01757   2.93819
C     0.30707  -0.32220   3.94436
H     1.10995  -0.61249   4.62155
H     0.21171  -1.07814   3.16448
H    -0.61646  -0.29849   4.51744
C     0.49549   2.14867   4.36126
H     1.25433   1.99403   5.12794
H    -0.47410   2.14010   4.85298
H     0.65516   3.12958   3.92046
C    -2.09873   1.74403   2.36433
H    -1.95862   2.29908   3.29985
C    -2.90007   0.47209   2.62639
H    -3.88944   0.71895   3.00883
H    -2.40541  -0.17665   3.34366
H    -3.01554  -0.07347   1.69280
C    -2.85921   2.62206   1.37643
H    -3.87118   2.78750   1.74377
H    -2.92587   2.11712   0.41579
H    -2.38829   3.59353   1.24478
N     0.71369   2.01023  -1.07657
H     0.26396   1.95334  -1.98520
P     2.13524  -0.49184  -0.16375
P    -0.39801   1.27141   1.74544
Co    0.00000   0.00000   0.00000
O    -1.54334   0.05660  -0.58085
