27

Cl   -0.11958  -1.03764   2.01897
C    -2.78968  -0.23936   0.90990
C    -1.66312  -2.26437   0.15701
H    -3.74820   1.17599   1.96745
H    -4.20172  -0.42266   2.41105
H    -0.67389  -3.99027   0.19452
H    -1.79701  -3.83328   1.45774
H    -3.24141  -2.15792   1.45770
N    -2.73824  -1.61680   0.76856
N    -3.75512   0.19207   1.75394
N    -1.52494  -3.56160   0.52717
O    -2.09317   0.54108   0.29320
O    -1.01323  -1.76925  -0.74184
Zn    0.00000   0.00000   0.00000
O     2.09357  -0.53969  -0.29290
O     1.01204   1.76989   0.74168
C     2.78923   0.24108  -0.91014
C     1.66162   2.26540  -0.15719
N     2.73719   1.61850  -0.76868
N     3.75439  -0.18984  -1.75476
N     1.52235   3.56242  -0.52768
H     3.23987   2.15990  -1.45795
H     3.74773  -1.17376  -1.96830
H     4.19993   0.42510  -2.41238
H     0.67097   3.99040  -0.19499
H     1.79399   3.83394  -1.45840
O     0.08673   0.75317  -1.46551
