49

Zn    0.00000   0.00000   0.00000
Br    1.39599  -0.57510  -1.78839
C    -2.09140   6.47427   0.19314
C    -1.41832   7.58502   0.68803
H    -1.71756   8.56489   0.34773
O    -3.57645   7.80843  -0.88646
C     5.26711  -3.97410   3.60996
H     6.29894  -4.00425   3.92204
C     3.27765  -2.71954   3.10482
H     2.75954  -1.77401   3.06042
C    -2.46948   3.99781   0.13056
H    -3.55037   4.04619   0.11594
N    -3.12544   6.68874  -0.78135
C    -0.68621   5.02963   1.48809
H    -0.41198   4.04313   1.82990
C    -2.49036  -1.61103   0.24976
H    -2.99175  -1.16554   1.11929
H    -2.96051  -2.57778   0.03642
N     2.64820  -6.34346   2.52281
N    -1.09488  -1.75227   0.56126
C    -1.74442   5.17365   0.58846
C     0.71376  -2.87203   1.57154
H     1.39255  -2.15523   1.12481
C    -0.37784   7.41577   1.58016
H     0.15006   8.27563   1.96120
C    -2.65370  -0.66344  -0.94559
H    -2.19843  -1.12578  -1.82681
H    -3.71909  -0.48408  -1.13576
O     3.17161  -7.36988   2.89750
C     1.18269  -3.81782   2.39995
H     0.50544  -4.55290   2.81398
C     4.59980  -2.76141   3.50596
H     5.11238  -1.84129   3.74027
C    -2.54636   1.66449  -0.56869
H    -3.62743   1.73113  -0.72012
C     2.58300  -3.88869   2.78746
C    -0.66718  -2.75498   1.21979
H    -1.34458  -3.54734   1.54778
C     4.60434  -5.14566   3.30196
H     5.09765  -6.10435   3.35708
C     3.27762  -5.10346   2.89013
N    -1.93977   0.54993  -0.67178
O     1.63149  -6.29337   1.85874
C    -0.01221   6.13549   1.97309
H     0.80331   5.99341   2.66491
O    -3.48619   5.73740  -1.44777
C    -1.84676   2.86433  -0.22707
H    -0.76537   2.82228  -0.24599
O     0.28309   0.76714   1.43313
