48

Au    0.00000   0.00000   0.00000
N     0.34707   2.78266  -1.01130
N     0.04360   3.66297  -1.93632
N    -0.78775   3.05322  -2.73721
C    -1.02928   1.78399  -2.32117
C    -0.27691   1.59261  -1.16129
C    -1.34171   3.76352  -3.85255
H    -0.69594   3.66383  -4.72662
H    -1.40683   4.81799  -3.58863
H    -2.32985   3.36847  -4.08311
C     1.31588   3.12079  -0.00170
H     1.08722   2.50585   0.87509
H     1.16585   4.17593   0.24639
C     2.75679   2.91730  -0.44890
C     3.42406   1.48811  -0.23840
H     2.78147   0.71618   0.16945
B     3.09949   1.96238  -1.85052
H     2.18881   1.44607  -2.38710
B     3.39564   3.69961  -1.82126
H     2.67481   4.40815  -2.42306
B     3.89692   4.16941  -0.18888
H     3.48513   5.17745   0.25630
B     3.89476   2.73590   0.83760
H     3.44148   2.70245   1.91996
B     5.06929   1.59310   0.19995
H     5.50333   0.77654   0.92204
B     4.58418   1.12428  -1.43242
H     4.70018   0.00598  -1.76921
B     4.61513   2.57480  -2.47703
H     4.86037   2.52099  -3.62558
B     5.11957   3.94935  -1.45003
H     5.71372   4.86159  -1.89328
B     5.41926   3.34281   0.21022
H     6.22134   3.82229   0.92192
B     5.85686   2.34213  -1.20727
H     6.97730   2.11775  -1.48092
C    -1.91325   0.84102  -2.99003
C    -1.88262   0.66830  -4.37260
H    -1.18018   1.22508  -4.97509
C    -2.71946  -0.25301  -4.97504
H    -2.68325  -0.38635  -6.04590
C    -3.59292  -1.00735  -4.20993
H    -4.24294  -1.72676  -4.68432
C    -3.62033  -0.84749  -2.83368
H    -4.29172  -1.44081  -2.23208
C    -2.78479   0.06819  -2.22371
H    -2.80233   0.19602  -1.15241
O     0.30791  -1.28368   0.98987
