49

Pd    0.00000   0.00000   0.00000
O     2.94120   2.74820   0.32193
N     0.97435   1.76126  -0.02860
N    -0.88191  -1.73857   0.03994
N    -3.62333  -4.86740  -0.24412
C     1.88588  -0.72146  -0.00556
C     2.38274  -2.02208  -0.05861
H     1.70307  -2.86751  -0.03643
C     3.74675  -2.26857  -0.13279
H     4.10317  -3.28919  -0.17360
C     4.66194  -1.22583  -0.15476
H     5.72032  -1.43500  -0.21161
C     4.21288   0.07889  -0.10257
H     4.90126   0.91137  -0.11629
C     2.84302   0.31530  -0.03485
C     2.25071   1.63031   0.06336
C     1.98331   3.78796   0.52582
H     2.19162   4.59513  -0.17999
H     2.10765   4.16246   1.54508
C     0.60215   3.12564   0.28803
H     0.09364   3.57421  -0.57478
C    -1.57988  -2.14209   1.10186
H    -1.40471  -1.59972   2.02760
C    -2.48640  -3.17484   1.05988
H    -3.01340  -3.43427   1.96149
C    -2.73069  -3.85157  -0.15106
C    -1.97917  -3.41010  -1.25817
H    -2.09517  -3.86197  -2.22805
C    -1.08907  -2.37206  -1.11718
H    -0.51048  -2.01701  -1.96978
C    -3.90816  -5.47037  -1.52441
H    -3.01317  -5.94084  -1.94068
H    -4.28021  -4.72942  -2.23822
H    -4.66795  -6.23791  -1.40352
C    -4.40747  -5.25467   0.90409
H    -3.75986  -5.57348   1.72490
H    -5.05141  -6.08911   0.63925
H    -5.03773  -4.43107   1.25311
C    -0.37447   3.14975   1.48615
H    -1.32710   2.76731   1.10201
C    -0.59442   4.57088   1.99466
H    -1.41090   4.57997   2.71216
H    -0.85598   5.23352   1.17300
H     0.29145   4.96595   2.48814
C     0.08090   2.20688   2.60278
H    -0.57799   2.31165   3.46134
H     1.10096   2.42052   2.92152
H     0.02732   1.15602   2.25494
O    -1.52504   0.60814  -0.16402
