60

Pd    0.00000   0.00000   0.00000
Cl    1.70814   1.46830  -0.17262
O    -4.30065  -2.11118   2.77261
P    -0.48026   0.45293   2.18091
P    -1.92627  -1.11103   0.39744
C    -0.77539   1.87896   3.25968
C    -1.79422   1.96569   4.20088
H    -2.49787   1.15442   4.32703
C    -1.90369   3.10313   4.98172
H    -2.69225   3.17392   5.71679
C    -1.00732   4.14783   4.82351
H    -1.10102   5.03152   5.43701
C     0.00254   4.06555   3.87677
H     0.69420   4.88459   3.74987
C     0.11814   2.93507   3.09062
H     0.88838   2.85183   2.33301
C     0.76604  -0.50758   3.10570
C     0.84690  -0.47412   4.49516
H     0.17723   0.16142   5.05860
C     1.79721  -1.23671   5.14969
H     1.86116  -1.20480   6.22747
C     2.67044  -2.03302   4.42596
H     3.41359  -2.62276   4.94144
C     2.60277  -2.06024   3.04194
H     3.29559  -2.66690   2.47829
C     1.65727  -1.29797   2.37894
H     1.63003  -1.29140   1.27784
C    -1.99847  -0.65467   2.22885
H    -2.90045  -0.05373   2.39993
C    -1.96678  -1.82881   3.19773
H    -1.13915  -2.50674   2.97618
H    -1.82268  -1.46678   4.22205
C    -3.27561  -2.59838   3.17742
C    -3.18544  -4.00056   3.70908
H    -4.17622  -4.37814   3.94719
H    -2.54230  -4.04561   4.58381
H    -2.75177  -4.63118   2.93328
C    -3.26229  -0.10342  -0.29933
C    -4.58220  -0.15348   0.14365
H    -4.86290  -0.82678   0.94131
C    -5.52413   0.68178  -0.42979
H    -6.54954   0.64237  -0.09240
C    -5.15676   1.57078  -1.42829
H    -5.89953   2.21794  -1.87088
C    -3.83908   1.64044  -1.85178
H    -3.55278   2.34427  -2.61873
C    -2.88863   0.80717  -1.28906
H    -1.84328   0.85577  -1.62034
C    -2.33850  -2.87268   0.27021
C    -3.57821  -3.38313  -0.09222
H    -4.39450  -2.71641  -0.32282
C    -3.75493  -4.75401  -0.16181
H    -4.71816  -5.15479  -0.44013
C    -2.70333  -5.61267   0.11556
H    -2.85086  -6.68089   0.05806
C    -1.45488  -5.10388   0.44242
H    -0.62798  -5.77305   0.62947
C    -1.27003  -3.73646   0.50953
H    -0.29006  -3.31716   0.71961
O     0.37909  -0.73603  -1.42725
