63

Pd    0.00000   0.00000   0.00000
Cl   -1.22601  -0.77299   1.77335
N    -2.01221   0.52464  -2.09691
N    -2.38381   1.68991  -0.32517
N     1.67042  -0.79074   0.90292
O     3.10745  -2.44834   1.24352
C    -1.56388   0.76386  -0.85261
C    -3.11004   1.30469  -2.35574
H    -3.63654   1.25986  -3.28710
C    -3.34467   2.03546  -1.24183
H    -4.08827   2.77795  -1.03695
C    -2.34618   2.15060   1.02135
C    -3.40916   1.82118   1.86678
C    -3.39424   2.30149   3.16590
H    -4.20922   2.04567   3.82731
C    -2.34713   3.07601   3.64330
C    -1.28485   3.34991   2.79598
H    -0.44761   3.92545   3.16485
C    -1.25893   2.89334   1.48534
C    -4.49749   0.89724   1.41195
H    -5.16062   0.66293   2.23988
H    -4.04777  -0.03048   1.05848
H    -5.09063   1.32319   0.60442
C    -2.36132   3.60903   5.04335
H    -3.02304   3.02243   5.67535
H    -2.71509   4.64071   5.04443
H    -1.36165   3.59734   5.47158
C    -0.06441   3.17115   0.62179
H     0.48587   4.03116   0.99684
H    -0.34653   3.35618  -0.41536
H     0.61570   2.29583   0.64163
C    -1.41729  -0.39841  -3.00155
C    -0.78350   0.07314  -4.15154
C    -0.21033  -0.85187  -5.01189
H     0.29182  -0.49566  -5.89942
C    -0.24603  -2.21206  -4.74855
C    -0.88013  -2.65140  -3.59439
H    -0.91273  -3.71004  -3.37858
C    -1.47440  -1.76419  -2.70972
C    -2.17654  -2.26455  -1.48223
H    -1.64031  -1.95653  -0.57286
H    -2.24104  -3.34941  -1.49646
H    -3.18578  -1.85677  -1.42222
C    -0.65263   1.54002  -4.41636
H    -0.19644   1.71232  -5.38702
H    -0.00728   1.96938  -3.64941
H    -1.61230   2.05173  -4.38361
C     0.39493  -3.19921  -5.67572
H     1.27008  -3.64322  -5.20212
H     0.71085  -2.71934  -6.59808
H    -0.29785  -4.00387  -5.91663
C     2.53747  -0.27744   1.94250
H     1.94370  -0.04771   2.83344
H     3.02742   0.63850   1.59636
C     3.53145  -1.44173   2.16405
H     4.56384  -1.17185   1.92803
H     3.48565  -1.85688   3.17384
C     2.03982  -1.96486   0.58784
C     1.36895  -2.81752  -0.42528
H     0.48293  -3.27237   0.02523
H     2.04392  -3.60175  -0.75714
H     1.05649  -2.19595  -1.27498
O     0.97063   0.50592  -1.23468
