34

Co    0.00000   0.00000   0.00000
S    -1.85307  -1.30361   0.11782
S    -0.08732  -0.05391  -2.26194
O    -2.93759  -4.04792  -1.44668
O    -4.17050  -2.31078  -2.16110
O    -0.81827  -1.17605  -4.82067
O    -2.13475  -2.85206  -4.08861
C    -1.99977  -1.83715  -1.48350
C    -1.28179  -1.34794  -2.52235
C    -3.06001  -2.88591  -1.69875
C    -5.25878  -3.19276  -2.41429
C    -1.37017  -1.76278  -3.91692
C    -2.25435  -3.32672  -5.42279
C    -1.08739   1.33398  -2.90026
C    -0.44905   1.98997   0.44831
C    -0.71001   1.18710   1.57545
C     0.50057   0.53968   1.94562
C     1.52520   1.00794   1.08418
C     0.94039   1.88217   0.14779
H    -6.07970  -2.56940  -2.75864
H    -5.53372  -3.72486  -1.50179
H    -4.97823  -3.92029  -3.17776
H    -2.96372  -2.70947  -5.97911
H    -1.28469  -3.29286  -5.92266
H    -2.61403  -4.35007  -5.35025
H    -0.51881   2.24638  -2.75852
H    -2.03863   1.38068  -2.38072
H    -1.23519   1.14689  -3.95967
H    -1.14252   2.67490  -0.01108
H    -1.64890   1.11178   2.09914
H     0.64224  -0.08214   2.81502
H     2.57276   0.76867   1.16065
H     1.47225   2.45121  -0.59813
O     0.90951  -1.35845  -0.22341
