34

Zn    0.00000   0.00000   0.00000
Cl    0.75639   2.03644  -0.32950
N     1.48461  -1.20763   1.04132
N     2.07368  -1.66224  -1.13379
N     0.97073  -1.00561  -1.55465
C     1.51681  -1.44772   2.34299
H     0.92410  -0.78485   2.95671
C     2.25610  -2.48011   2.89287
H     2.26375  -2.63895   3.95834
C     2.96034  -3.31280   2.03552
H     3.52303  -4.15001   2.41970
C     2.92192  -3.07393   0.67381
H     3.42269  -3.73424  -0.01189
C     2.17831  -1.98804   0.21272
C     2.95213  -1.83534  -2.17239
C     2.36205  -1.27141  -3.28115
C     1.12238  -0.76633  -2.83873
C     4.30371  -2.43841  -2.05850
H     4.77867  -2.16433  -1.11867
H     4.91706  -2.07439  -2.87975
H     4.26392  -3.52548  -2.13357
C     0.15815  -0.03463  -3.69155
H     0.22664   1.02844  -3.44014
H    -0.86197  -0.35432  -3.46946
C     0.51264  -0.25650  -5.16365
H     0.23527  -1.27126  -5.45760
H    -0.05432   0.43933  -5.78240
C     2.01109  -0.05608  -5.39331
H     2.30397   0.91928  -5.00051
H     2.22988  -0.07063  -6.46195
C     2.82374  -1.14820  -4.69235
H     2.67921  -2.10378  -5.20655
H     3.88993  -0.91307  -4.72909
O    -1.38323  -0.72466   0.53296
