42

Co    0.00000   0.00000   0.00000
S    -0.98970   1.22682  -1.62499
S     1.38292  -0.85793  -1.59429
C     0.17555   1.17862  -2.90035
C     1.25341   0.36201  -2.88786
C    -0.12760   2.07401  -4.02774
C    -0.46946   3.40148  -3.78710
C    -0.75594   4.24863  -4.84119
C    -0.71750   3.77717  -6.14264
C    -0.39639   2.45153  -6.38672
C    -0.10334   1.60138  -5.33773
C     2.31029   0.34007  -3.89554
C     2.78868  -0.87116  -4.39546
C     3.78735  -0.88989  -5.35038
C     4.32827   0.29731  -5.81507
C     3.86901   1.50466  -5.31299
C     2.87294   1.53024  -4.35673
C     3.10698  -0.63772  -1.06521
C    -0.23157  -0.41866   2.08571
C    -1.42780   0.07566   1.51071
C    -1.85153  -0.85582   0.51809
C    -0.89027  -1.87424   0.44240
C     0.12670  -1.59471   1.40076
H    -0.49595   3.76146  -2.76966
H    -1.01205   5.27941  -4.64567
H    -0.94242   4.43924  -6.96574
H    -0.37637   2.07743  -7.39975
H     0.13651   0.56579  -5.52728
H     2.35829  -1.79754  -4.04053
H     4.14329  -1.83485  -5.73429
H     5.10776   0.28148  -6.56194
H     4.29487   2.43264  -5.66457
H     2.52706   2.46967  -3.95399
H     3.31313  -1.41347  -0.33455
H     3.21377   0.34808  -0.62020
H     3.74703  -0.75206  -1.93475
H     0.29575   0.01680   2.91877
H    -1.99933   0.91793   1.86791
H    -2.78079  -0.81509  -0.02561
H    -0.94759  -2.75648  -0.17339
H     0.95176  -2.24338   1.64910
O     1.03017   1.25716   0.28426
