28

Co    0.00000   0.00000   0.00000
S     0.48742  -2.19375  -0.29791
S     1.70906   0.19657   1.48359
O     3.35592  -2.92356   3.18484
O     3.38890  -0.69175   3.50452
C     1.55306  -2.47305   0.97922
C     2.10048  -1.51404   1.76064
C     2.99374  -1.81500   2.87083
C     4.22427  -0.88243   4.63499
C     3.24602   0.66554   0.61190
C    -0.30720   0.22952  -2.05791
C     0.65204   1.15744  -1.60953
C     0.02354   2.00983  -0.65505
C    -1.31372   1.59659  -0.51274
C    -1.51473   0.46614  -1.34526
H     1.81703  -3.50765   1.15570
H     5.20113  -1.26015   4.32561
H     3.77253  -1.60078   5.32140
H     4.32184   0.09112   5.10838
H     3.39963   0.02074  -0.24701
H     4.06194   0.55691   1.31957
H     3.15368   1.70253   0.30792
H    -0.16945  -0.50189  -2.83746
H     1.63817   1.29244  -2.02316
H     0.46456   2.88245  -0.19979
H    -2.06562   2.07520   0.09223
H    -2.45524  -0.03269  -1.51610
O    -0.84804  -0.39907   1.35797
