24

Co    0.00000   0.00000   0.00000
S     1.97378   0.85274   0.77649
S    -1.11859   1.83367   0.82746
N     3.24389   3.21489   3.21426
N    -0.73226   4.28214   3.52651
C     1.41827   2.09431   1.81300
C     0.11602   2.49183   1.92951
C     2.41792   2.72329   2.59220
C    -0.31962   3.48359   2.81064
C    -2.40995   1.36185   2.00930
C    -0.51351   0.43792  -1.99844
C    -1.40637  -0.54416  -1.47297
C    -0.65196  -1.68336  -1.13055
C     0.71283  -1.38602  -1.35933
C     0.78610  -0.08174  -1.93935
H    -2.60656   2.21720   2.64978
H    -3.29174   1.11172   1.42770
H    -2.07036   0.50330   2.58424
H    -0.80255   1.37948  -2.43522
H    -2.48275  -0.47639  -1.47054
H    -1.04426  -2.62227  -0.77580
H     1.53529  -2.07765  -1.26288
H     1.67785   0.38336  -2.32618
O    -0.18456  -0.79115   1.43615
