67

C    -0.68377   1.40350   1.03943
C    -1.24540  -0.74212   3.10977
C    -2.09309  -2.23281   0.87131
C     0.49252  -2.75888   2.03132
C    -2.52361  -0.18973   3.14455
C    -2.71854  -3.26726   1.55762
C    -2.98056   0.43988   4.28602
C    -3.85011  -3.85563   1.02520
C    -2.16149   0.53492   5.40017
C    -4.36413  -3.41276  -0.18402
C    -0.88944  -0.01136   5.37154
C    -3.74908  -2.37591  -0.86526
C    -0.42919  -0.64511   4.23093
C    -2.61571  -1.78667  -0.33682
C    -1.87731   2.03729   0.72133
C     0.04638   3.17051  -1.32471
C     2.39899   1.61129  -1.31432
C     0.35326   1.08497  -3.27244
C    -1.05114   3.65485  -2.02714
C     3.01842   0.93958  -0.26705
C    -1.52938   4.92857  -1.77528
C     4.38373   1.04934  -0.07992
C    -0.92298   5.72406  -0.81784
C     5.13299   1.83357  -0.94052
C     0.17133   5.24654  -0.11376
C     4.51739   2.51258  -1.98100
C     0.65073   3.97488  -0.36135
C     3.15229   2.40755  -2.16923
C    -2.40151   3.08056   1.46763
C    -1.71432   3.51801   2.59372
C    -0.51771   2.90807   2.95090
C    -0.02894   1.87300   2.16983
F    -2.53833   1.61247  -0.38141
F    -3.55516   3.66894   1.11518
F    -2.20375   4.52455   3.33250
F     0.14749   3.32263   4.04035
F     1.13250   1.27101   2.51900
H     0.06001  -3.30844   2.86627
H     0.63734  -3.41682   1.17478
H     1.46058  -2.35083   2.32155
H    -3.15782  -0.25702   2.27013
H    -2.32485  -3.60407   2.50624
H    -3.97323   0.86502   4.30461
H    -4.33587  -4.66169   1.55529
H    -2.51354   1.04030   6.28674
H    -5.24808  -3.87796  -0.59418
H    -0.24784   0.06726   6.23650
H    -4.15124  -2.02793  -1.80472
H     0.57267  -1.04856   4.20784
H    -2.12402  -0.96912  -0.86709
H     0.95886   0.21794  -3.53476
H     0.64136   1.94772  -3.87158
H    -0.69383   0.84341  -3.45415
H    -1.54362   3.03173  -2.75931
H     2.42026   0.32204   0.40544
H    -2.38601   5.29641  -2.32013
H     4.86160   0.52450   0.73347
H    -1.30555   6.71290  -0.61490
H     6.20034   1.91886  -0.80093
H     0.64590   5.86371   0.63484
H     5.10520   3.12732  -2.64677
H     1.49981   3.59648   0.19293
H     2.67006   2.94639  -2.97263
Ni    0.00000   0.00000   0.00000
P    -0.62148  -1.39626   1.53167
P     0.59837   1.44591  -1.49524
O     0.60104  -1.23392  -0.91579
