51

Fe    0.00000   0.00000   0.00000
Br    2.21135   0.39819  -0.32431
N     0.05631  -0.92439   1.57812
N     0.06966  -1.84269  -0.72248
O     0.10023   1.03016   2.77593
P    -0.29532   1.74002   1.32995
C     0.13332  -0.32137   2.77983
C     0.25712  -1.01758   3.96010
H     0.31658  -0.47517   4.88831
C     0.31181  -2.41405   3.91346
H     0.40167  -2.97691   4.82817
C     0.26313  -3.04882   2.69521
H     0.31639  -4.12221   2.62456
C     0.14940  -2.28613   1.52735
C     0.13367  -2.77851   0.18300
C     0.23730  -4.24222  -0.10980
H    -0.66174  -4.76006   0.22293
H     1.08957  -4.66188   0.42189
H     0.36729  -4.41257  -1.17543
C    -0.05630  -2.13855  -2.08618
C     0.90362  -1.70143  -2.99466
H     1.78010  -1.18225  -2.63991
C     0.73384  -1.94541  -4.34438
H     1.48585  -1.60720  -5.04130
C    -0.39047  -2.61149  -4.80229
H    -0.52144  -2.79182  -5.85854
C    -1.35228  -3.03690  -3.90092
H    -2.23838  -3.54530  -4.25055
C    -1.18876  -2.80876  -2.54916
H    -1.94783  -3.11294  -1.84318
C    -2.07539   2.21021   1.70314
H    -2.50988   2.51589   0.74604
C    -2.24840   3.32906   2.72449
H    -3.29954   3.39766   3.00115
H    -1.94946   4.29461   2.32403
H    -1.67590   3.11905   3.62716
C    -2.80006   0.95340   2.18723
H    -2.48004   0.69296   3.19548
H    -2.61052   0.10236   1.53286
H    -3.87410   1.12595   2.20323
C     0.64584   3.32581   1.54599
H     0.17015   3.84871   2.38189
C     0.47478   4.12306   0.25659
H     0.91931   5.11136   0.35580
H    -0.57926   4.24081   0.00447
H     0.96886   3.61025  -0.56767
C     2.11480   3.12352   1.89750
H     2.67389   2.71697   1.06067
H     2.22039   2.44979   2.74550
H     2.55513   4.08248   2.16597
O    -1.35120   0.33173  -0.88697
