33

Zr    0.00000   0.00000   0.00000
P    -3.00848  -0.52239   1.34148
C    -1.49333  -1.72808  -0.79605
Cl    2.26395   0.49557  -0.28440
B    -2.77805  -2.03148   0.08987
C    -0.19790  -2.31870  -0.67622
H     0.03843  -3.18559  -0.06889
Cl   -4.37177  -2.10034  -0.82593
C     0.65319  -1.74505  -1.64914
H     1.66650  -2.05907  -1.87308
C    -0.08865  -0.77552  -2.36173
H     0.26043  -0.20876  -3.21857
Cl   -2.51574  -3.46258   1.22488
C    -1.40632  -0.76606  -1.84197
H    -2.24496  -0.21988  -2.26125
C    -1.38823  -0.08779   1.98146
C    -0.33532  -1.03681   2.19264
H    -0.47681  -2.10185   2.32889
C     0.84948  -0.31770   2.41410
H     1.80572  -0.73846   2.69865
C     0.55510   1.06398   2.33128
H     1.25543   1.86845   2.51450
C    -0.81067   1.21463   2.06325
H    -1.34634   2.15451   2.01764
C    -4.13828  -0.86320   2.72983
H    -4.18517  -0.00633   3.40047
H    -3.77411  -1.73697   3.26841
H    -5.12762  -1.07995   2.32875
C    -3.65594   0.98851   0.55190
H    -3.89248   1.73973   1.30423
H    -4.56567   0.71728   0.01568
H    -2.92367   1.39323  -0.15441
O    -0.42923   1.47495  -0.60231
