32

Ti    0.00000   0.00000   0.00000
Cl    0.59813   1.90376  -0.84443
Cl   -1.86592   0.70997   1.06148
P    -1.13640  -2.23125   0.64384
P    -1.70775  -0.33399  -1.99366
C     1.26103  -0.11493   1.64028
C    -0.32956  -3.85946   0.37133
C    -1.85995  -2.47991   2.31055
C    -2.65821  -2.39844  -0.39911
C    -2.34303  -2.07280  -1.85646
C    -3.27788   0.61260  -2.12305
C    -1.16099  -0.32880  -3.74442
H     2.27920   0.15474   1.32437
H     1.31318  -1.11075   2.10089
H     0.94817   0.59798   2.41579
H    -1.02823  -4.67730   0.54824
H     0.51277  -3.94118   1.05828
H     0.06055  -3.90189  -0.64422
H    -2.43633  -1.59435   2.57412
H    -1.05057  -2.60158   3.03045
H    -2.49726  -3.36426   2.32414
H    -3.39130  -1.68799  -0.00237
H    -3.05624  -3.41448  -0.29565
H    -1.55099  -2.73199  -2.22700
H    -3.22878  -2.19369  -2.48936
H    -3.02766   1.64915  -2.35045
H    -3.91852   0.20890  -2.90735
H    -3.79234   0.59151  -1.16324
H    -0.27034  -0.94988  -3.83403
H    -0.90279   0.69371  -4.02144
H    -1.94870  -0.70086  -4.40010
O     0.87063  -0.99425  -0.98791
