40

Re    0.00000   0.00000   0.00000
Br   -6.96620  -4.48886  -1.75543
Br    4.84071   6.65524   1.57337
O     0.01345  -2.54816  -1.76141
O     2.08600   1.34214  -1.85530
O     2.08067  -0.99243   2.06129
N    -1.61405  -0.69544   1.12959
N    -0.34191   1.78986   1.01629
C    -2.24884  -0.74350   2.46292
H    -1.77975  -1.37564   3.20911
H    -2.68366   0.17432   2.84301
C    -2.72357  -1.31243   1.20516
C    -3.70572  -2.05154   0.50905
C    -3.61263  -2.22903  -0.87869
H    -2.79500  -1.78583  -1.42439
C    -4.57843  -2.94709  -1.54875
H    -4.51536  -3.08074  -2.61728
C    -5.63720  -3.49412  -0.83610
C    -5.74762  -3.32842   0.53932
H    -6.58140  -3.76098   1.07041
C    -4.78584  -2.60622   1.21019
H    -4.85688  -2.46637   2.27867
C    -1.41123   2.72553   1.43094
H    -2.11044   3.05079   0.66851
H    -1.83585   2.57763   2.41896
C     0.01662   2.98148   1.28512
C     1.13201   3.84582   1.35394
C     2.41921   3.32947   1.14149
H     2.53913   2.27574   0.93353
C     3.51531   4.16053   1.20602
H     4.50857   3.77147   1.04465
C     3.33044   5.51013   1.48044
C     2.06369   6.03923   1.69310
H     1.94619   7.09105   1.90310
C     0.96588   5.20849   1.63291
H    -0.02604   5.60379   1.79236
C     0.05422  -1.63080  -1.07984
C     1.35922   0.82403  -1.14008
C     1.29704  -0.63651   1.30313
O    -1.13836   0.59695  -1.03455
