66

Pd    0.00000   0.00000   0.00000
P     0.73331  -2.13659  -0.20874
C    -0.02071   0.09495   2.11079
H    -0.98716  -0.27145   2.44722
H     0.80821  -0.27146   2.71421
C     0.10880   1.37905   1.54226
C    -0.83019   1.86485   0.60801
H    -0.51993   2.79147   0.11725
C    -2.35355   1.76041   0.67942
C    -2.81518   2.28088   2.04962
H    -2.42664   1.66511   2.85895
H    -3.90207   2.27500   2.10344
H    -2.46873   3.30133   2.20336
C    -2.93621   2.66123  -0.41854
H    -2.60982   2.32307  -1.40026
H    -2.61421   3.69238  -0.28576
H    -4.02362   2.63937  -0.39069
C    -2.90517   0.33737   0.45441
H    -2.74409  -0.30633   1.32170
H    -2.46277  -0.12130  -0.44790
H    -3.98136   0.39522   0.29273
C     1.44055   2.03696   1.60640
C     2.16003   2.32458   0.44530
H     1.75095   2.07706  -0.53512
C     3.40673   2.91853   0.52781
H     3.95826   3.12874  -0.37671
C     3.94506   3.23816   1.76337
H     4.91778   3.70321   1.82619
C     3.23471   2.95870   2.91874
H     3.65080   3.20708   3.88422
C     1.99156   2.35669   2.84260
H     1.43684   2.13701   3.74477
C     0.50558  -3.14761  -1.70389
C    -0.41919  -4.18049  -1.79869
H    -1.02785  -4.44903  -0.94637
C    -0.55591  -4.87405  -2.98843
H    -1.27367  -5.67865  -3.05684
C     0.21662  -4.53716  -4.08678
H     0.09942  -5.07715  -5.01448
C     1.13607  -3.50425  -3.99692
H     1.73447  -3.23263  -4.85311
C     1.28150  -2.81124  -2.81167
H     1.99225  -1.99880  -2.73944
C     2.53395  -2.23563  -0.00178
C     3.24182  -3.42603  -0.14471
H     2.71554  -4.33800  -0.39365
C     4.61414  -3.42781   0.01979
H     5.16634  -4.35020  -0.08678
C     5.28520  -2.24972   0.31450
H     6.35795  -2.26041   0.43898
C     4.58633  -1.06047   0.43694
H     5.10770  -0.13924   0.65259
C     3.21238  -1.05477   0.27687
H     2.65110  -0.12195   0.35432
C     0.01730  -3.17011   1.10618
C    -1.37310  -3.11224   1.20297
H    -1.92296  -2.50546   0.48679
C    -2.03520  -3.81450   2.19035
H    -3.11284  -3.77246   2.25794
C    -1.30902  -4.56798   3.10080
H    -1.82184  -5.11383   3.87888
C     0.07241  -4.61292   3.01951
H     0.63591  -5.19231   3.73646
C     0.74025  -3.91622   2.02576
H     1.81947  -3.94606   1.97344
O    -0.08239   0.32982  -1.61460
