55

Pd    0.00000   0.00000   0.00000
O     2.51677   1.13275  -2.98456
O     0.81327  -2.66572  -4.17462
N    -0.27824   1.94399  -0.04879
N     0.43761   1.74598  -2.26068
N     1.76417   0.37110  -0.93476
N     0.32852  -1.98613  -0.08585
N    -0.13113  -1.73475  -2.30915
N    -0.26364  -0.64227  -4.29453
C    -0.77563   2.65316   0.96314
C    -1.14835   3.97481   0.82407
C    -1.00971   4.57637  -0.42228
C    -0.47499   3.85028  -1.46433
C    -0.09756   2.51838  -1.24818
C     1.71534   1.01501  -2.08131
C     2.85931  -0.35017  -0.47570
C     3.83228  -0.91835  -1.29610
C     4.84538  -1.67137  -0.73236
C     4.90790  -1.86538   0.63740
C     3.94990  -1.29076   1.45906
C     2.93291  -0.53715   0.91015
C     0.72338  -2.69180   0.97101
C     1.25380  -3.95973   0.84874
C     1.38255  -4.50583  -0.42376
C     0.93479  -3.79700  -1.51935
C     0.39337  -2.52774  -1.31116
C     0.20617  -1.75599  -3.66603
C    -0.04940  -0.23613  -5.61742
C     0.63797  -1.00673  -6.54788
C     0.80779  -0.53248  -7.83607
C     0.29968   0.69912  -8.21169
C    -0.38617   1.46629  -7.28504
C    -0.56054   1.00348  -5.99539
H    -0.89175   2.12562   1.90411
H    -1.55077   4.51651   1.66341
H     0.50005   2.24411  -3.14560
H    -1.30782   5.60253  -0.57263
H    -0.34035   4.28931  -2.44094
H    -0.63756  -0.91604  -1.92579
H    -0.72823   0.05426  -3.72434
H     3.78275  -0.76646  -2.36238
H     5.59219  -2.11613  -1.37341
H     5.70170  -2.45864   1.06588
H     4.00047  -1.43105   2.52923
H     2.17161  -0.06145   1.54331
H     0.59688  -2.21380   1.93790
H     1.56891  -4.50328   1.72380
H     1.81478  -5.48537  -0.55623
H     1.00371  -4.18145  -2.52260
H     1.03751  -1.96326  -6.25765
H     1.34460  -1.13531  -8.55314
H     0.43662   1.06121  -9.21923
H    -0.78678   2.42899  -7.56673
H    -1.10147   1.60199  -5.27390
O    -1.48969  -0.26404   0.65848
