65

Ti    0.00000   0.00000   0.00000
Cl   -1.50551  -0.68416  -1.49249
C     1.89990  -1.14754   0.69182
C     1.01084  -1.01226   1.78553
H     1.23690  -0.53142   2.72996
C    -0.10309  -1.85667   1.54436
C    -1.19961  -2.22648   2.49495
H    -1.56520  -1.34926   3.03537
H    -0.79892  -2.92949   3.23671
C    -2.33049  -2.89373   1.71476
H    -2.78362  -2.15954   1.04120
H    -3.09947  -3.25084   2.40203
C    -1.76515  -4.05378   0.89994
H    -2.57539  -4.64046   0.46331
H    -1.19610  -4.70970   1.56471
C    -0.85552  -3.54050  -0.22058
H    -0.27939  -4.37374  -0.63103
H    -1.47666  -3.13926  -1.02812
C     0.07337  -2.47547   0.28745
C     1.29355  -1.99807  -0.27470
C     3.28040  -0.55780   0.63430
H     4.00832  -1.31971   0.34331
H     3.55197  -0.21174   1.63491
C     3.30808   0.61927  -0.36274
H     4.00011   1.39269  -0.01897
H     3.65843   0.27764  -1.34021
C     1.92676   1.18745  -0.52407
C     1.13142   1.05242  -1.68752
H     1.44016   0.58487  -2.61528
C    -0.01351   1.87460  -1.52710
C    -1.03963   2.23611  -2.55613
H    -1.34444   1.35913  -3.13341
H    -0.59690   2.95642  -3.25630
C    -2.24079   2.87130  -1.85841
H    -2.72869   2.12024  -1.22923
H    -2.96216   3.22107  -2.59901
C    -1.76432   4.03308  -0.99082
H    -2.61804   4.59732  -0.61122
H    -1.16114   4.70875  -1.60366
C    -0.93147   3.52594   0.19057
H    -0.40179   4.36529   0.64847
H    -1.60364   3.10759   0.94678
C     0.05149   2.48133  -0.25377
C     1.22930   2.01573   0.39992
C     2.01126  -2.50615  -1.50283
H     2.80314  -1.78811  -1.74810
C     2.68867  -3.84584  -1.18021
H     3.26322  -4.19229  -2.03669
H     1.94768  -4.60197  -0.93488
H     3.35953  -3.74120  -0.33009
C     1.11497  -2.64183  -2.73528
H     1.72754  -2.79840  -3.62168
H     0.51529  -1.74332  -2.87714
H     0.43983  -3.48641  -2.63857
C     1.82841   2.51454   1.69356
H     2.60125   1.80014   2.00151
C     2.52019   3.86375   1.45205
H     3.00020   4.20823   2.36562
H     1.79962   4.61420   1.13795
H     3.27565   3.77378   0.67437
C     0.81961   2.62717   2.83918
H     1.34572   2.73653   3.78610
H     0.18939   1.73953   2.88794
H     0.17575   3.49182   2.71055
O    -1.23696   0.47839   0.98162
