61

Ag    0.00000   0.00000   0.00000
N     0.61430   2.81899   1.09944
C     0.16776   2.18867   0.02123
N    -0.11401   2.83325  -1.10379
C     0.02383   4.26135  -1.41059
H    -0.19636   4.38425  -2.47356
H    -0.71577   4.84187  -0.84462
C     1.41360   4.74525  -1.11257
C     1.85315   4.73438   0.21097
C     0.91349   4.24490   1.27476
H     1.37068   4.35907   2.26036
H    -0.01558   4.82876   1.26487
C     2.27374   5.15979  -2.11805
H     1.93294   5.16360  -3.14357
C     3.56254   5.56435  -1.81375
H     4.22567   5.88472  -2.60286
C     3.99941   5.55138  -0.50075
H     5.00522   5.86094  -0.26077
C     3.14676   5.13564   0.50793
H     3.48776   5.12053   1.53331
C     0.87569   2.01522   2.25439
C     2.08678   1.33074   2.36719
C     2.32258   0.58448   3.51372
H     3.25442   0.04511   3.60211
C     1.39041   0.50896   4.53648
C     0.19584   1.20410   4.40149
H    -0.54102   1.14876   5.18998
C    -0.07819   1.96013   3.27371
C     3.10889   1.36725   1.27035
H     2.87513   0.59808   0.52801
H     4.09934   1.15761   1.66584
H     3.12508   2.32996   0.76380
C     1.65977  -0.29421   5.77114
H     0.79373  -0.90098   6.02687
H     1.86478   0.36779   6.61287
H     2.51628  -0.94774   5.63043
C    -1.37596   2.70180   3.14882
H    -2.10906   2.30352   3.84498
H    -1.77354   2.61524   2.13882
H    -1.23637   3.76058   3.37111
C    -0.59953   2.03763  -2.19047
C     0.30223   1.37128  -3.02401
C    -0.19982   0.62337  -4.07847
H     0.49010   0.09551  -4.72066
C    -1.56292   0.52709  -4.31933
C    -2.43588   1.21004  -3.48543
H    -3.50013   1.14369  -3.66036
C    -1.97507   1.96971  -2.42111
C     1.78163   1.42969  -2.78228
H     2.08462   2.37887  -2.34581
H     2.32409   1.27761  -3.71196
H     2.07126   0.63133  -2.09300
C    -2.07474  -0.32315  -5.43964
H    -1.43494  -0.23751  -6.31520
H    -3.08961  -0.04429  -5.71153
H    -2.07909  -1.36805  -5.12971
C    -2.93759   2.70384  -1.53516
H    -2.64154   2.62099  -0.49055
H    -3.93942   2.29757  -1.64432
H    -2.96923   3.76216  -1.79793
O     0.05648  -1.64385  -0.13063
