70

C    -1.64114   0.69916   0.67112
C    -1.81510   0.82593   2.04488
C    -2.95585   1.45942   2.53458
H    -3.07383   1.55178   3.60149
C    -3.90380   1.97372   1.65154
C    -3.69158   1.87828   0.27193
H    -4.39661   2.30431  -0.42521
C    -2.55652   1.24953  -0.22389
C    -5.16971   2.66736   2.14046
C    -5.27160   2.70551   3.66776
H    -5.28516   1.70165   4.08567
H    -6.19703   3.20078   3.95485
H    -4.44548   3.26354   4.10171
C    -6.39178   1.91107   1.60005
H    -6.37863   0.87978   1.94644
H    -6.40761   1.90513   0.51395
H    -7.30779   2.38137   1.95122
C    -5.18094   4.11390   1.62645
H    -6.06254   4.63460   1.99435
H    -5.19312   4.15131   0.54102
H    -4.29657   4.64253   1.97526
C    -0.66815   0.28066   2.72880
C     0.78388  -0.26080   4.31405
H     0.68899  -1.08169   5.02827
H     1.39366   0.53463   4.75410
C     1.32802  -0.72417   2.93583
C     2.69112  -0.10199   2.62357
H     3.18614  -0.65995   1.83271
H     3.32775  -0.13000   3.50492
H     2.56625   0.93102   2.30362
C     1.38550  -2.25086   2.83675
H     0.43031  -2.68502   3.12445
H     2.16775  -2.63906   3.48485
H     1.58751  -2.54578   1.80960
C    -2.06546   1.08322  -1.57179
C    -1.83099   1.20828  -3.77459
H    -1.52291   2.14999  -4.23860
H    -2.39791   0.61685  -4.49756
C    -0.63144   0.42855  -3.17167
C     0.70632   1.10341  -3.46704
H     0.74012   2.09069  -3.01144
H     0.84998   1.19596  -4.54099
H     1.51086   0.50363  -3.05069
C    -0.61217  -1.03128  -3.62680
H     0.16960  -1.56434  -3.09308
H    -0.41899  -1.08652  -4.69533
H    -1.56281  -1.51233  -3.40577
C    -0.66712  -1.88870  -0.12719
C    -1.92190  -2.35148   0.25839
H    -2.66119  -1.66636   0.65295
C    -2.25600  -3.69135   0.14790
H    -3.23952  -4.02106   0.45611
C    -1.35254  -4.62020  -0.35006
C    -0.10124  -4.16620  -0.73882
H     0.62345  -4.86675  -1.13303
C     0.23250  -2.82627  -0.62844
H     1.22021  -2.51479  -0.95108
C    -1.73227  -6.06581  -0.48082
H    -2.28086  -6.40181   0.39728
H    -0.85017  -6.68987  -0.60411
H    -2.37483  -6.20891  -1.35042
N     0.30110  -0.22298   2.02774
N    -0.92695   0.48775  -1.74525
O    -0.51324   0.26588   4.05385
O    -2.68547   1.51113  -2.67283
O     2.25111  -0.25742  -0.89397
Rh    0.00000   0.00000   0.00000
H     2.88362  -0.55327  -0.23319
H     2.19955   0.72242  -0.78966
O     0.68645   1.49831   0.07978
