22

Zn    0.00000   0.00000   0.00000
Cl    1.01605   0.37466  -1.94219
N    -1.77139  -0.94770  -0.92290
N     0.72319  -1.84933   0.71455
C    -1.66860  -2.40824  -1.00099
H    -2.31862  -2.80082  -1.79340
H    -2.00042  -2.82767  -0.04707
C    -0.22190  -2.84258  -1.28040
H    -0.22075  -3.80289  -1.79489
H     0.24265  -2.09440  -1.92890
C     0.58241  -2.95091  -0.02253
C     1.39935  -1.90080   1.85658
H     1.45285  -0.97607   2.41426
C     1.99155  -3.06106   2.32073
H     2.53562  -3.05880   3.25108
C     1.86687  -4.21370   1.56036
H     2.31696  -5.14026   1.88389
C     1.14731  -4.15733   0.37969
H     1.02336  -5.03784  -0.23143
H    -2.68596  -0.68035  -0.56817
H    -1.68781  -0.56602  -1.86427
O    -0.23727   0.94507   1.33156
