65

Pt    0.00000   0.00000   0.00000
Cl    0.01367  -1.84288  -1.45859
N    -1.97668   0.20359  -0.47716
N    -3.66209  -1.07425  -1.50827
N    -2.74667  -1.75122   0.50619
N    -4.37372   0.83657   0.75838
N    -4.85925   0.21991   2.91847
N    -4.18769   2.39576   2.53493
C    -2.22815   1.34420  -1.25137
C    -1.21435   1.81495  -2.06400
H    -0.24894   1.30829  -2.05575
C    -1.41890   2.88379  -2.93627
H    -0.60690   3.21854  -3.56429
C    -2.65056   3.46920  -3.01470
H    -2.83866   4.26792  -3.71714
C    -3.69751   3.06473  -2.16091
C    -4.94626   3.71619  -2.22329
H    -5.08921   4.49159  -2.96134
C    -5.94478   3.38525  -1.35069
H    -6.90401   3.88139  -1.39650
C    -5.71429   2.43340  -0.36031
H    -6.48341   2.21827   0.36963
C    -4.50667   1.76039  -0.25789
C    -3.48440   2.01687  -1.22010
C    -2.78612  -0.83241  -0.49578
C    -4.99165  -1.57970  -1.27135
H    -5.12370  -1.78267  -0.21507
H    -5.17342  -2.49063  -1.84929
H    -5.72269  -0.82443  -1.57611
C    -3.40871  -0.65918  -2.86677
H    -3.92212   0.27168  -3.12687
H    -3.76376  -1.45024  -3.53181
H    -2.33954  -0.53829  -3.02202
C    -2.02665  -1.45465   1.72267
H    -0.94500  -1.64603   1.61984
H    -2.40892  -2.09988   2.51478
H    -2.18630  -0.41227   1.99544
C    -2.82648  -3.16584   0.20797
H    -3.11068  -3.32148  -0.82733
H    -3.55083  -3.65621   0.86293
H    -1.84563  -3.62647   0.35702
C    -4.47105   1.16163   1.99851
C    -4.21845   0.11352   4.20811
H    -3.69399  -0.84350   4.29193
H    -4.95550   0.16949   5.01497
H    -3.49453   0.91435   4.32930
C    -5.55509  -0.96050   2.47915
H    -6.09674  -0.72519   1.56639
H    -6.26485  -1.26034   3.25391
H    -4.87619  -1.79692   2.28488
C    -3.34160   3.33965   1.84636
H    -2.57717   2.80916   1.28434
H    -2.84012   3.95460   2.59573
H    -3.90047   3.99665   1.16976
C    -5.04334   2.98356   3.53852
H    -5.56442   3.85190   3.11867
H    -4.45748   3.32076   4.39841
H    -5.78576   2.26335   3.87120
C     2.11921   0.25269  -0.14770
H     2.35193   1.30001   0.02756
H     2.45881  -0.16037  -1.09389
C     1.84862  -0.58533   0.91621
H     1.87495  -0.20265   1.93266
H     1.97732  -1.65881   0.80576
O    -0.14387   1.26869   1.04510
