69

Pt    0.00000   0.00000   0.00000
Cl    0.11110  -0.63691   2.23858
N    -0.62845  -1.88183  -0.45712
N     1.27676  -2.58404  -1.58752
N    -0.77242  -3.43629  -2.21480
N    -2.76907  -5.94840  -0.57379
N    -3.63252  -7.83279   0.60121
N    -4.54536  -7.12360  -1.41051
C    -1.88454  -2.15131   0.10721
C    -2.80451  -1.10590   0.20324
H    -2.53062  -0.12796  -0.19113
C    -4.04929  -1.30314   0.76508
H    -4.74630  -0.48123   0.83126
C    -4.39709  -2.55686   1.23982
H    -5.36863  -2.72183   1.68157
C    -3.48647  -3.59361   1.16596
H    -3.75263  -4.56223   1.56241
C    -2.22219  -3.41673   0.61574
C    -1.24333  -4.51899   0.61469
C     0.00157  -4.32764   1.19845
H     0.20554  -3.38121   1.67772
C     0.95327  -5.33131   1.20146
H     1.91595  -5.16319   1.66046
C     0.66122  -6.55140   0.61439
H     1.40244  -7.33818   0.59640
C    -0.58506  -6.77425   0.06438
H    -0.81940  -7.72525  -0.39636
C    -1.56356  -5.77539   0.07212
C    -0.07262  -2.61299  -1.39550
C     2.15683  -2.06093  -0.56625
H     2.30204  -0.97332  -0.66194
H     3.12776  -2.54646  -0.67918
H     1.76427  -2.29203   0.42218
C     1.81854  -2.45427  -2.92511
H     1.04057  -2.59326  -3.66810
H     2.61575  -3.18321  -3.08522
H     2.22520  -1.44753  -3.05668
C    -0.21771  -4.66659  -2.72748
H     0.74284  -4.86549  -2.26066
H    -0.09684  -4.63011  -3.81424
H    -0.89918  -5.48294  -2.48073
C    -2.17211  -3.24117  -2.50864
H    -2.80277  -3.88963  -1.89388
H    -2.33365  -3.48023  -3.56222
H    -2.44368  -2.20115  -2.34672
C    -3.57777  -6.92893  -0.43887
C    -2.98779  -7.59307   1.86738
H    -2.00058  -8.06676   1.92985
H    -3.62000  -8.00203   2.66027
H    -2.86579  -6.52658   2.03489
C    -3.95230  -9.22125   0.36235
H    -4.26482  -9.36070  -0.66853
H    -4.75023  -9.55669   1.03166
H    -3.06938  -9.84348   0.54993
C    -4.39808  -6.37063  -2.63490
H    -4.71890  -5.32873  -2.52300
H    -5.00379  -6.84711  -3.40625
H    -3.35394  -6.38232  -2.93630
C    -5.92852  -7.25910  -0.99852
H    -5.98795  -7.64064   0.01591
H    -6.44544  -7.94681  -1.67096
H    -6.43940  -6.28936  -1.03393
C    -0.13131   2.07172   0.50560
H    -0.62494   2.60456  -0.30303
H    -0.59458   2.15504   1.48544
C     1.20160   1.72650   0.39550
H     1.75650   1.98980  -0.50127
H     1.79387   1.54359   1.28778
O    -0.07206   0.31239  -1.61855
