44

Mn    0.00000   0.00000   0.00000
O     1.04899   2.93261  -0.08831
O    -1.89304  -2.47913  -0.07845
O     2.21975   0.94075   1.66000
O     0.41061  -2.37158   1.66625
O    -1.88200   1.03210   1.98037
O    -0.43538   4.26786  -4.48643
O    -3.85557  -1.95628  -4.46029
N    -0.25338   1.61744  -1.33081
N    -1.49461  -0.67597  -1.32828
C     1.34866   0.62816   0.97504
C     0.20500  -1.47313   0.97612
C    -1.16383   0.63533   1.17052
C     1.94416   4.00862   0.09373
H     2.71306   4.02194  -0.68372
H     2.41280   3.82902   1.05969
H     1.41686   4.96720   0.11767
C     0.40473   2.77565  -1.25088
C     0.40114   3.72141  -2.27362
H     0.95861   4.63465  -2.16283
C    -0.33325   3.45267  -3.42350
C    -1.03971   2.24906  -3.49308
H    -1.60623   2.04185  -4.38263
C    -0.97418   1.35843  -2.43687
C     0.27361   5.48789  -4.48436
H     0.04875   5.95827  -5.43959
H     1.35185   5.32197  -4.40711
H    -0.05883   6.14142  -3.67222
C    -2.32451  -3.80939   0.11271
H    -1.93134  -4.47058  -0.66455
H    -3.41642  -3.87466   0.14476
H    -1.91584  -4.10560   1.07718
C    -1.67697   0.06957  -2.43337
C    -2.47225  -0.35699  -3.48170
H    -2.61326   0.23176  -4.36976
C    -3.10436  -1.60076  -3.40473
C    -2.92496  -2.36173  -2.25473
H    -3.39489  -3.32215  -2.13714
C    -2.11630  -1.85388  -1.24050
C    -4.50606  -3.20845  -4.44750
H    -5.02970  -3.27564  -5.39911
H    -5.23094  -3.27312  -3.63043
H    -3.78836  -4.03006  -4.37032
O     1.07267  -0.56385  -1.11979
