70

Pt    0.00000   0.00000   0.00000
Cl    1.41185   0.13348  -1.79112
P    -1.69150   0.43086  -1.44929
P    -2.84018  -0.84157   1.01091
O    -2.64872   1.41320   0.94596
O     1.42150   6.64064   2.60635
O     2.65848   5.34858   3.79652
N     1.72290   5.55248   3.05277
C    -1.29409  -0.23200   1.67835
H    -0.79591  -0.72999   2.50410
C    -1.53469   1.17189   1.51677
C    -0.66252   2.27257   1.94987
C     0.47415   2.07260   2.74065
H     0.75734   1.08018   3.05434
C     1.25668   3.15006   3.10049
H     2.14533   3.01881   3.69871
C     0.90438   4.42808   2.67778
C    -0.23428   4.64397   1.90826
H    -0.48534   5.64854   1.60409
C    -1.01789   3.56828   1.55658
H    -1.91343   3.69925   0.96913
C    -4.28730  -0.52059   2.03380
C    -4.29378  -1.08975   3.30343
H    -3.46446  -1.71424   3.61076
C    -5.35975  -0.85470   4.15187
H    -5.37103  -1.29215   5.13891
C    -6.41186  -0.05492   3.73264
H    -7.24432   0.12739   4.39557
C    -6.39656   0.51793   2.47038
H    -7.21519   1.14717   2.15432
C    -5.33184   0.29217   1.61655
H    -5.28974   0.75114   0.64046
C    -2.65852  -2.65120   0.95487
C    -3.73339  -3.50962   1.15894
H    -4.69679  -3.10632   1.44133
C    -3.56466  -4.87546   1.01750
H    -4.39981  -5.53949   1.18481
C    -2.32851  -5.39016   0.66129
H    -2.20064  -6.45665   0.55253
C    -1.25737  -4.53800   0.44301
H    -0.29392  -4.93603   0.16317
C    -1.42124  -3.17256   0.58447
H    -0.57736  -2.50466   0.41155
C    -3.11112  -0.48159  -0.75018
C    -4.15628  -0.96096  -1.41419
H    -4.91667  -1.55260  -0.92523
H    -4.28417  -0.78077  -2.47102
C    -1.58245  -0.27740  -3.11138
C    -1.66221   0.48994  -4.26616
H    -1.83688   1.55461  -4.19760
C    -1.50491  -0.11418  -5.50198
H    -1.56232   0.48263  -6.40031
C    -1.26304  -1.47447  -5.58735
H    -1.13340  -1.93900  -6.55350
C    -1.17347  -2.24043  -4.43428
H    -0.97154  -3.29903  -4.50196
C    -1.32817  -1.64437  -3.19906
H    -1.23939  -2.22614  -2.28900
C    -2.18312   2.14921  -1.71094
C    -3.49866   2.55922  -1.88366
H    -4.29868   1.83343  -1.85968
C    -3.77056   3.90232  -2.07210
H    -4.79187   4.23000  -2.20078
C    -2.73910   4.82883  -2.09338
H    -2.96117   5.87569  -2.23795
C    -1.42644   4.41746  -1.92407
H    -0.62457   5.14024  -1.93610
C    -1.14601   3.07739  -1.72744
H    -0.12804   2.73444  -1.58157
O     1.26422  -0.44110   0.96420
