53

C    -1.46861  -1.22109   3.03876
C    -1.19362  -0.90204   4.48927
H    -2.01446  -0.74351   5.17647
C    -0.00799  -0.06440   4.66077
H     0.22495   0.33804   5.63451
C     0.70789   0.21002   3.55442
C     0.94423  -2.20984   2.60556
C     0.28144  -2.88076   3.64364
C    -1.05114  -2.34544   3.98252
C    -2.06306  -3.33620   4.44455
C    -2.63018  -4.20856   3.52252
H    -2.33540  -4.15031   2.48521
C    -3.56802  -5.13914   3.92924
H    -4.00883  -5.80745   3.20486
C    -3.94018  -5.21473   5.26109
H    -4.67280  -5.94163   5.57826
C    -3.36711  -4.35937   6.18617
H    -3.64800  -4.42047   7.22730
C    -2.43278  -3.42272   5.78052
H    -1.98079  -2.76243   6.50726
C     0.87787  -3.99102   4.21932
H     0.37501  -4.51972   5.01600
C     2.11642  -4.41098   3.76225
H     2.57841  -5.28047   4.20521
C     2.77021  -3.73193   2.74407
H     3.73236  -4.07828   2.39843
C     2.19308  -2.61391   2.16559
H     2.69066  -2.07313   1.37289
C    -2.78081  -1.20242   2.36259
C    -3.94153  -0.74239   2.97071
H    -3.91057  -0.35576   3.97849
C    -5.14195  -0.77006   2.28331
H    -6.03960  -0.40877   2.76295
C    -5.19523  -1.25056   0.98629
H    -6.13340  -1.26373   0.45247
C    -4.04187  -1.71191   0.37355
H    -4.07433  -2.08639  -0.63823
C    -2.84411  -1.69145   1.06108
H    -1.93851  -2.06270   0.59381
C     1.96335   0.94445   3.46684
C     2.32401   1.57582   2.27792
H     1.65447   1.52770   1.42713
C     3.51246   2.27371   2.18273
H     3.77454   2.75923   1.25486
C     4.36310   2.34673   3.27356
H     5.29399   2.88846   3.19945
C     4.01838   1.71706   4.45903
H     4.68260   1.76616   5.30937
C     2.83040   1.01912   4.55785
H     2.57680   0.51325   5.47759
P     0.04598  -0.71473   2.12198
Au    0.00000   0.00000   0.00000
O    -0.03100   0.50408  -1.57081
