53

C    -2.87648   2.01732   0.27096
C    -3.38345   3.23907   0.43232
H    -4.44408   3.42753   0.38908
C    -2.46154   4.42255   0.66224
C    -1.51408   4.42943  -0.51996
H    -1.45482   5.31421  -1.13098
C    -0.78524   3.34645  -0.79146
C     0.17953   3.18438  -1.87830
C    -0.10959   3.61089  -3.17155
H    -1.06597   4.06846  -3.37984
C     0.81254   3.42436  -4.18457
H     0.57831   3.74860  -5.18778
C     2.02916   2.81718  -3.91874
H     2.74291   2.66661  -4.71453
C     2.32844   2.40163  -2.63161
H     3.27553   1.93011  -2.41823
C     1.40724   2.58166  -1.61755
H     1.64271   2.27701  -0.60486
C    -3.62082   0.77914   0.04626
C    -3.25704  -0.37289   0.73786
H    -2.44989  -0.32401   1.45882
C    -3.93660  -1.55801   0.53015
H    -3.64354  -2.44574   1.06940
C    -4.98378  -1.60406  -0.37542
H    -5.50843  -2.53165  -0.54742
C    -5.35640  -0.45985  -1.06207
H    -6.17290  -0.49513  -1.76810
C    -4.68184   0.72872  -0.85365
H    -4.95897   1.61850  -1.40032
C    -3.23294   5.70545   0.88354
C    -2.80291   6.93589   0.40348
H    -1.88495   7.02014  -0.15771
C    -3.52976   8.08795   0.65401
H    -3.17995   9.03228   0.26368
C    -4.68980   8.03531   1.40476
H    -5.25572   8.93417   1.59760
C    -5.10730   6.82157   1.92334
H    -5.99686   6.76897   2.53353
C    -4.38270   5.67185   1.66984
H    -4.70626   4.73952   2.11003
C    -0.88423   2.90002   1.85930
C    -1.60877   4.09069   1.89041
C    -1.50706   4.89959   3.00810
H    -2.04740   5.83290   3.05852
C    -0.70431   4.51078   4.07119
H    -0.63250   5.15088   4.93753
C     0.00198   3.32057   4.03435
H     0.62072   3.02959   4.86935
C    -0.08351   2.50536   2.91865
H     0.46257   1.57321   2.86045
P    -1.05633   1.93990   0.33861
Au    0.00000   0.00000   0.00000
O     0.77972  -1.43358  -0.24371
