57

C     3.40078   0.75345  -0.79934
C     4.33526   1.61681  -1.36990
C     3.98735   2.71003  -2.15685
H     4.79589   3.25099  -2.63268
C     2.69558   3.17346  -2.38441
C     1.57063   2.64862  -1.74942
C     2.55320   4.26174  -3.36995
C     3.24404   5.46024  -3.22867
H     3.85813   5.62124  -2.35404
C     3.12828   6.44936  -4.18823
H     3.65759   7.38263  -4.06435
C     2.34003   6.24414  -5.30838
H     2.25495   7.01580  -6.05878
C     1.66500   5.04504  -5.46542
H     1.05683   4.87748  -6.34220
C     1.76724   4.06045  -4.49989
H     1.25058   3.11979  -4.62100
C     5.77914   1.41468  -1.14159
C     6.27881   1.47263   0.15510
H     5.59434   1.62407   0.97701
C     7.63714   1.35607   0.38681
H     8.01701   1.40948   1.39656
C     8.50882   1.16984  -0.67312
H     9.56868   1.07209  -0.49171
C     8.01816   1.11350  -1.96701
H     8.69576   0.96983  -2.79571
C     6.66191   1.24690  -2.20262
H     6.27881   1.20402  -3.21230
C     5.54143  -1.62309  -0.37753
H     5.82875  -1.48378  -1.41468
H     5.56891  -2.68839  -0.16997
H     6.29740  -1.15030   0.23821
C     3.45542  -0.83110   1.84467
H     2.46902  -0.41379   2.03206
H     4.18379  -0.20363   2.34980
H     3.48970  -1.81078   2.31002
C     2.57392  -2.17501  -0.85579
H     2.46996  -1.97185  -1.91879
H     1.58245  -2.11116  -0.41445
H     2.91039  -3.20146  -0.74946
C    -0.69254   3.38011   0.14022
H    -1.39457   4.16857   0.39241
H     0.15910   3.47160   0.81044
H    -1.17732   2.43235   0.35866
C    -1.35326   2.49826  -2.79426
H    -1.12870   2.61159  -3.85024
H    -2.37443   2.83190  -2.64024
H    -1.31700   1.43821  -2.55586
C    -0.12809   5.33466  -2.14860
H    -0.06179   5.49796  -3.21769
H     0.70480   5.85355  -1.68461
H    -1.04220   5.80662  -1.80140
Si    3.79052  -0.96139  -0.02670
Si   -0.15699   3.48592  -1.68905
Au    0.00000   0.00000   0.00000
P     1.72922   1.19283  -0.83199
O    -1.27730  -0.87564   0.56944
