41

Pd    0.00000   0.00000   0.00000
Cl    0.16078   2.13733  -0.67041
N     0.73847   0.35550   1.78998
N    -0.41811  -1.96492   1.01400
C     0.28727  -0.41265   2.70312
H     0.66273  -0.37699   3.72562
C    -0.78705  -1.41728   2.35121
C    -2.10756  -0.62845   2.25569
H    -2.07507   0.07124   1.40122
H    -2.24762  -0.04917   3.16677
H    -2.95796  -1.29540   2.14365
C    -0.88384  -2.45450   3.47944
H    -1.08716  -1.93980   4.41607
H     0.04632  -3.00559   3.59227
H    -1.68638  -3.16143   3.30707
C    -1.47915  -2.64663   0.25371
H    -2.27399  -1.92575   0.04447
H    -1.03798  -2.89187  -0.71442
C    -2.09680  -3.91540   0.84563
H    -2.63458  -4.42943   0.05283
H    -2.81269  -3.69676   1.63405
H    -1.34552  -4.59905   1.23274
C     0.82375  -2.75087   1.04881
H     1.46210  -2.34837   1.84238
H     0.61698  -3.80258   1.28307
C     1.59362  -2.67399  -0.26897
H     2.57196  -3.13381  -0.14866
H     1.73008  -1.61984  -0.57088
H     1.06852  -3.18764  -1.07031
C     1.74220   1.29719   2.01779
C     1.77423   2.08912   3.16274
H     0.98928   2.00092   3.90008
C     2.77984   3.02511   3.31958
H     2.79252   3.65107   4.19922
C     3.75993   3.16634   2.35166
H     4.53971   3.90173   2.47861
C     3.73028   2.37662   1.21209
H     4.48658   2.49566   0.45167
C     2.72305   1.44935   1.03653
H     2.67344   0.83581   0.13778
O    -0.57883  -0.40361  -1.49149
