43

Pd    0.00000   0.00000   0.00000
N     0.62308   0.69472  -1.78046
N    -1.20571  -1.37376  -1.51853
C     0.42786  -0.11139  -2.73883
H     0.61435   0.15397  -3.77877
C    -0.08582  -1.51577  -2.47697
C     1.07255  -2.30088  -1.83406
H     1.96407  -2.20149  -2.45141
H     0.83166  -3.35704  -1.75073
H     1.29068  -1.89314  -0.83105
C    -0.45670  -2.15738  -3.82456
H    -1.25433  -1.60689  -4.31820
H    -0.77531  -3.18579  -3.69946
H     0.41452  -2.15269  -4.47685
C    -1.62144  -2.56288  -0.76479
H    -2.38288  -2.21754  -0.06169
H    -0.77933  -2.90185  -0.15392
C    -2.18648  -3.75240  -1.54656
H    -2.91939  -3.44163  -2.28772
H    -2.68379  -4.41838  -0.84519
H    -1.40684  -4.32523  -2.04351
C    -2.34450  -0.62993  -2.06308
H    -3.07480  -1.29594  -2.54337
H    -1.96943   0.05910  -2.82730
C    -3.03851   0.19230  -0.97614
H    -3.63652  -0.43556  -0.32064
H    -3.69168   0.93649  -1.42703
H    -2.27875   0.70407  -0.35892
C     1.44424   0.92579   1.13455
H     2.37865   0.97073   0.56072
H     1.61814   0.35092   2.04651
H     1.13098   1.93654   1.41733
C     1.01236   2.07579  -1.96859
H     1.88577   2.23367  -1.32318
C     1.37991   2.48377  -3.39507
H     0.52304   2.41242  -4.06252
H     2.18982   1.86922  -3.78323
H     1.71416   3.51775  -3.38693
C    -0.13681   2.94246  -1.43618
H     0.17518   3.98119  -1.37107
H    -0.42975   2.59542  -0.43673
H    -0.99655   2.87502  -2.10152
O    -0.65551  -0.59090   1.39414
