25

Pd    0.00000   0.00000   0.00000
Cl   -0.29826   1.34904   1.78329
Cl   -1.62071  -1.34175   0.81372
Cl    1.67705  -1.21399   1.07901
N     0.38702  -1.13684  -1.67947
N     1.49522   1.12847  -0.86780
C    -0.23184  -2.26405  -1.99055
C     0.08815  -2.98193  -3.13257
C     1.08694  -2.49596  -3.96169
C     1.72778  -1.31512  -3.62655
C     1.35596  -0.64057  -2.46439
C     1.96616   0.62103  -2.01753
C     2.97268   1.28763  -2.71490
C     3.47807   2.47406  -2.21054
C     2.97145   2.97305  -1.02079
C     1.97146   2.26088  -0.37674
H    -1.00241  -2.59047  -1.29881
H    -0.43468  -3.89644  -3.35953
H     1.36544  -3.02752  -4.85871
H     2.50631  -0.92676  -4.26170
H     3.35702   0.88923  -3.63899
H     4.25654   3.00009  -2.74161
H     3.33794   3.89310  -0.59612
H     1.53211   2.59657   0.55765
O    -1.07443   0.85705  -0.91300
