55

Au    0.00000   0.00000   0.00000
Se    0.21430   0.11334   2.39251
P     1.47229   1.85096   2.10187
C     2.36860  -0.70122   5.20826
H     1.40801  -1.04837   4.82297
H     2.86745  -1.53723   5.69808
C     3.24738  -0.23664   3.98704
H     4.21151  -0.74426   4.03567
H     2.74723  -0.54633   3.07118
C     3.47143   1.24557   4.02084
C     2.57387   2.20469   3.52186
C     2.57596   3.48064   4.08369
H     1.82028   4.19731   3.80534
C     3.46143   3.83760   5.09177
C     4.53999   2.99075   5.32036
H     5.33085   3.29138   5.99075
C     4.52905   1.71507   4.79759
H     5.30990   1.02396   5.07973
C     3.16260   4.97733   6.02248
H     2.45123   5.65626   5.55126
H     4.07183   5.53745   6.24247
C     2.55441   4.45085   7.37640
H     3.28002   4.60048   8.17594
H     1.66506   5.03723   7.60895
C     2.22034   2.99092   7.26421
C     3.11716   2.01729   7.68789
H     3.91444   2.28368   8.36723
C     3.07621   0.74327   7.15129
H     3.83919   0.02650   7.41933
C     2.14179   0.42371   6.17330
C     1.08807   1.30919   5.97152
H     0.28401   1.02974   5.30340
C     1.12377   2.57752   6.51438
H     0.34416   3.28866   6.27804
C     2.65079   1.83224   0.64738
H     2.01034   1.80530  -0.24428
C     3.51673   0.58091   0.65083
H     4.21220   0.58931   1.48870
H     4.08914   0.53453  -0.27349
H     2.89927  -0.31665   0.70081
C     3.50575   3.09411   0.64137
H     4.12436   3.14920   1.53618
H     2.89793   3.99395   0.58073
H     4.16170   3.07362  -0.22682
C     0.38863   3.35254   1.85428
H     1.03666   4.22870   1.96826
C    -0.24029   3.40205   0.46735
H    -0.82884   2.50616   0.26788
H     0.50423   3.50005  -0.31961
H    -0.90765   4.26067   0.40832
C    -0.68479   3.34545   2.93763
H    -1.23181   4.28667   2.93666
H    -0.25068   3.18970   3.92473
H    -1.39458   2.54012   2.75158
O     0.09336   0.21311  -1.63351
