57

Au    0.00000   0.00000   0.00000
Br    1.08900  -2.10431   0.57992
Br   -0.59581  -0.90896  -2.18636
S    -1.04892   2.11594  -0.53541
P    -3.05518   1.93057  -0.65629
C    -1.12885   5.51277  -1.24324
H    -0.40678   4.84129  -0.77961
H    -0.58436   6.27903  -1.79457
C    -1.99252   4.68290  -2.26752
H    -2.01579   5.21635  -3.21832
H    -1.50304   3.72564  -2.43002
C    -3.39768   4.52054  -1.77212
C    -3.82328   3.57156  -0.82742
C    -4.93725   3.85119  -0.03557
H    -5.21421   3.18501   0.76566
C    -5.65493   5.03093  -0.17551
C    -5.42199   5.78097  -1.32347
H    -6.05198   6.62695  -1.55210
C    -4.30798   5.52664  -2.09436
H    -4.07331   6.19069  -2.91304
C    -6.49282   5.57165   0.94596
H    -6.75054   4.76407   1.63160
H    -7.41871   5.99767   0.55899
C    -5.71367   6.69050   1.73482
H    -6.17461   7.65696   1.53134
H    -5.80332   6.48758   2.80217
C    -4.27205   6.71989   1.31396
C    -3.83459   7.59073   0.32284
H    -4.43563   8.45014   0.06197
C    -2.70250   7.30066  -0.41650
H    -2.42842   7.93730  -1.24537
C    -1.99274   6.12866  -0.18262
C    -2.27213   5.42444   0.98471
H    -1.65028   4.58402   1.25910
C    -3.39743   5.72040   1.72802
H    -3.65228   5.11518   2.58696
C    -3.64509   0.96822  -2.13809
H    -3.24578  -0.04641  -2.03254
C    -3.08353   1.56842  -3.41987
H    -3.45724   2.57909  -3.57675
H    -3.38220   0.95162  -4.26396
H    -1.99581   1.58172  -3.39655
C    -5.16898   0.93200  -2.15984
H    -5.49723   0.39482  -3.04699
H    -5.58011   1.94000  -2.20040
H    -5.57707   0.42177  -1.29019
C    -3.72985   1.08010   0.85899
H    -4.81962   1.17883   0.79917
C    -3.39176  -0.40595   0.86967
H    -3.79236  -0.86032   1.77401
H    -2.31132  -0.56530   0.88276
H    -3.80502  -0.93120   0.01071
C    -3.20528   1.78173   2.10801
H    -2.13835   1.61056   2.23426
H    -3.70874   1.39340   2.99121
H    -3.36694   2.85666   2.05663
O     0.38256   0.60071   1.48839
