67

I     0.08339  -0.81915  -2.48645
Pd    0.00000   0.00000   0.00000
N    -2.80608   1.13902  -0.47067
N    -8.70673   3.98290  -1.59874
C    -1.75470   0.67211  -0.28419
C    -4.01398   1.70735  -0.69712
C    -4.56819   1.60062  -1.98382
C    -5.79407   2.20374  -2.19791
C    -6.43709   2.87990  -1.16174
C    -5.86628   2.96824   0.10743
C    -4.64174   2.37963   0.36514
C    -7.69094   3.48962  -1.40349
C    -3.79836   0.89347  -3.07113
C    -4.68375   0.35549  -4.19149
C    -2.74561   1.85279  -3.64145
C    -3.94759   2.47586   1.70073
C    -2.90945   3.60405   1.64310
C    -4.90400   2.69850   2.86872
H    -6.26553   2.15911  -3.16616
H    -6.39230   3.50166   0.88237
H    -3.27339   0.04057  -2.62403
H    -5.09576   1.16274  -4.79219
H    -4.08724  -0.27629  -4.84465
H    -5.50023  -0.24069  -3.78959
H    -2.06776   2.20388  -2.86511
H    -2.15602   1.34183  -4.39796
H    -3.22691   2.71750  -4.09372
H    -3.41554   1.53410   1.88220
H    -2.37316   3.65678   2.58681
H    -2.18260   3.43345   0.85059
H    -3.39800   4.55908   1.46103
H    -5.33253   3.69750   2.84417
H    -5.70864   1.96635   2.85745
H    -4.35702   2.59222   3.80205
C     1.75396  -0.67412   0.28424
N     2.80372  -1.14383   0.47285
C     4.00969  -1.71570   0.70079
C     4.56256  -1.61073   1.98820
C     5.78608  -2.21805   2.20396
C     6.42816  -2.89654   1.16871
C     5.85883  -2.98288  -0.10125
C     4.63667  -2.39005  -0.36062
C     3.94408  -2.48392  -1.69719
C     2.90278  -3.60927  -1.64137
H     2.36767  -3.66020  -2.58586
H     2.17528  -3.43691  -0.84982
H     3.38843  -4.56571  -1.45893
C     4.90153  -2.70879  -2.86391
H     5.32707  -3.70907  -2.83926
H     5.70830  -1.97903  -2.85109
H     4.35620  -2.60042  -3.79797
H     3.41488  -1.54065  -1.87907
H     6.38403  -3.51813  -0.87547
C     7.67936  -3.51095   1.41221
N     8.69264  -4.00876   1.60872
H     6.25634  -2.17503   3.17286
C     3.79375  -0.90094   3.07448
C     4.67974  -0.36495   4.19533
H     5.08874  -1.17308   4.79689
H     4.08458   0.26905   4.84756
H     5.49842   0.22848   3.79379
C     2.73787  -1.85709   3.64432
H     2.05969  -2.20658   2.86753
H     2.14909  -1.34419   4.40015
H     3.21640  -2.72297   4.09731
H     3.27152  -0.04678   2.62659
O    -0.05271   0.51591   1.56638
