61

C    -0.39397   2.51080  -0.86037
C    -0.43254   3.88806  -1.00912
H    -0.05931   4.50934  -0.21046
C    -0.94715   4.45447  -2.16917
C    -1.43697   3.63408  -3.18974
C    -1.41075   2.25236  -3.04284
H    -1.79365   1.60746  -3.81801
C    -0.89096   1.68116  -1.89184
C    -1.24131  -0.71355  -2.32101
C    -1.24042  -1.98839  -1.44595
H    -2.18435  -1.97094  -0.89616
H    -1.21968  -2.88357  -2.07708
C     1.05485  -2.49349  -1.20458
H     1.96123  -2.37598  -0.61651
H     1.18146  -1.95428  -2.14078
H     0.91477  -3.55764  -1.43088
C    -0.39440  -2.81102   0.68259
H    -0.40420  -3.86714   0.37666
H    -1.38641  -2.54670   1.05299
C     0.60133  -2.64106   1.83569
H     1.62122  -2.82039   1.49456
H     0.36972  -3.41732   2.56854
C     0.50097  -1.29800   2.56798
H    -0.54776  -1.12893   2.81840
H     1.07868  -1.36002   3.50151
C     2.43132  -0.17013   1.69665
H     2.77417  -1.01981   1.11206
H     2.87012  -0.23161   2.70017
H     2.78242   0.74194   1.21930
C     0.60516   1.13070   2.43741
H     1.30453   1.38651   3.24091
H    -0.39843   1.05008   2.86153
C     0.53233   2.27797   1.40331
C    -0.97635   5.94752  -2.31042
H    -2.00071   6.30070  -2.42688
H    -0.41529   6.26711  -3.18907
H    -0.54591   6.42097  -1.43205
C    -1.99709   4.23108  -4.44668
H    -1.25276   4.84947  -4.94925
H    -2.85408   4.86504  -4.22074
H    -2.31714   3.44862  -5.12965
C     2.17250   0.98235  -1.91395
H     1.46149   1.67216  -2.38109
C     4.47473   0.24039  -1.90507
H     5.26656   0.85810  -1.47749
H     4.89289  -0.35927  -2.71571
H     4.07412  -0.41656  -1.13685
C     3.75150   2.01009  -3.43826
H     4.52488   2.69366  -3.08127
H     2.87621   2.58727  -3.72714
H     4.13309   1.47917  -4.31328
Co    0.00000   0.00000   0.00000
N     0.06947   1.80762   0.24525
N    -0.81487   0.32347  -1.60040
N    -0.11151  -1.96711  -0.49117
N     0.96930  -0.14367   1.78158
N     3.40382   1.07246  -2.40176
O     0.85645   3.42243   1.68217
O    -1.60143  -0.72896  -3.48838
O     1.84669   0.19910  -1.02316
O    -1.47837  -0.03226   0.73204
