65

Rh    0.00000   0.00000   0.00000
P     2.23684  -0.09877  -0.25969
O    -0.35021  -1.86453  -0.37443
O    -0.31423  -1.13176  -1.52781
N     0.31011   1.93350  -0.18960
N    -2.09435   0.70591  -0.15950
C     2.61171   1.59125   0.42530
H     2.53932   1.47090   1.51139
H     3.59494   1.98519   0.16700
C     1.50243   2.50639   0.02205
C     1.65909   3.87843  -0.09439
H     2.62569   4.32596   0.07759
C     0.56035   4.66389  -0.41385
H     0.65878   5.73584  -0.48783
C    -0.66294   4.05611  -0.63149
H    -1.53330   4.64862  -0.86071
C    -0.75615   2.67093  -0.52770
C    -1.99877   1.91751  -0.75061
C    -3.01491   2.44216  -1.53946
H    -2.89590   3.39920  -2.02013
C    -4.15239   1.68170  -1.74180
H    -4.93342   2.02235  -2.40499
C    -4.27828   0.49562  -1.05108
H    -5.17296  -0.09218  -1.16491
C    -3.25329   0.04442  -0.21086
C    -3.52949  -1.17075   0.65970
C    -2.55953  -1.27077   1.83559
H    -2.84537  -2.10142   2.47692
H    -2.56909  -0.35763   2.42727
H    -1.54446  -1.46145   1.48910
C    -3.42510  -2.43255  -0.20670
H    -2.40415  -2.54469  -0.56286
H    -4.09586  -2.37991  -1.06206
H    -3.68189  -3.30649   0.38677
C    -4.95155  -1.05953   1.24086
H    -5.07543  -1.81197   2.01575
H    -5.72180  -1.23291   0.49396
H    -5.11187  -0.08094   1.68961
C     2.80350   0.02203  -2.06702
C     4.18641   0.64809  -2.25242
H     4.96443   0.11977  -1.71428
H     4.19290   1.69166  -1.94471
H     4.43786   0.61878  -3.31238
C     1.79031   0.90014  -2.80875
H     1.80120   1.92586  -2.44167
H     0.78715   0.48701  -2.71185
H     2.04230   0.92395  -3.86845
C     2.74772  -1.37959  -2.67246
H     2.83358  -1.32088  -3.75680
H     1.78928  -1.83682  -2.43062
H     3.55481  -2.00925  -2.30751
C     3.27817  -1.32670   0.73661
C     2.66201  -2.70673   0.49479
H     2.86498  -3.07101  -0.50818
H     1.58000  -2.66198   0.62474
H     3.06793  -3.42538   1.20492
C     4.76737  -1.33287   0.39920
H     5.19964  -0.33859   0.49665
H     4.95935  -1.71741  -0.59882
H     5.27836  -1.98710   1.10525
C     3.11822  -0.97415   2.21669
H     3.46501  -1.80786   2.82483
H     2.07525  -0.78838   2.46616
H     3.70859  -0.10033   2.48634
O     0.11485   0.45500   1.58186
