32

Cu    0.00000   0.00000   0.00000
S     0.55426  -2.12191   0.71832
N     2.83984  -0.89474   1.29369
N     2.68516  -3.14114   1.79233
C     2.13524  -2.01708   1.30503
C     4.02272  -3.20961   2.33466
C     4.88482  -2.15211   1.65146
C     4.19367  -0.79978   1.79021
H     2.41041  -0.05225   0.89351
H     2.09351  -3.95553   1.80305
H     4.00374  -3.03527   3.41898
H     4.42250  -4.21058   2.15614
H     4.98460  -2.39817   0.59320
H     5.87599  -2.12098   2.10080
H     4.71280  -0.03197   1.21331
H     4.18196  -0.48723   2.84242
S    -2.12166   0.55399  -0.71924
C    -2.01663   2.13478  -1.30643
N    -0.89426   2.83933  -1.29512
N    -3.14058   2.68458  -1.79412
C    -0.79922   4.19310  -1.79181
H    -0.05199   2.41015  -0.89421
C    -3.20901   4.02210  -2.33656
H    -3.95502   2.09300  -1.80466
C    -2.15158   4.88428  -1.65335
H    -0.03148   4.71232  -1.21492
H    -0.48657   4.18120  -2.84399
H    -3.03449   4.00302  -3.42085
H    -4.21000   4.42190  -2.15824
H    -2.39782   4.98419  -0.59515
H    -2.12038   5.87539  -2.10282
O     1.16649   1.16696   0.00063
