32

Ir    0.00000   0.00000   0.00000
Cl    0.94019   2.12057  -0.12351
Cl    1.88411  -0.90429   0.97724
N    -0.81412  -1.84991   0.30658
N    -0.63504   0.26888   1.92383
C    -0.50027   1.32631   2.69769
H    -0.12003   2.21932   2.21894
C    -0.80585   1.29502   4.05984
H    -0.67005   2.18715   4.64992
C    -0.85655  -2.88000  -0.51334
H    -0.53546  -2.69130  -1.52952
C    -1.26825  -4.14706  -0.09521
H    -1.27742  -4.95809  -0.80559
C    -1.64305  -4.34543   1.21361
H    -1.95732  -5.31684   1.56529
C    -1.59948  -3.26228   2.10705
C    -1.16970  -2.02033   1.59816
C    -1.07376  -0.88970   2.46132
C    -1.40799  -1.01247   3.82489
C    -1.26222   0.12921   4.63024
H    -1.49768   0.07519   5.68268
C    -1.85141  -2.27756   4.30798
H    -2.10437  -2.35990   5.35451
C    -1.94308  -3.35274   3.48697
H    -2.27070  -4.30937   3.86583
N    -1.55198   0.81893  -0.90600
C    -2.01051   1.47282  -1.73232
C    -2.57699   2.28087  -2.75983
H    -2.35751   3.32778  -2.55040
H    -3.65487   2.13289  -2.81520
H    -2.11840   2.00188  -3.70891
O     0.50938  -0.37449  -1.52407
