39

C     0.62108   2.39352  -1.67379
H    -0.45284   2.48235  -1.56832
C     1.30657   3.23959  -2.52811
H     0.76347   3.98461  -3.08588
C     2.67773   3.09936  -2.65554
H     3.24303   3.72834  -3.32592
C     3.31175   2.13917  -1.88624
H     4.38089   2.00459  -1.93653
C     2.55721   1.33265  -1.04531
C     3.21337   0.28546  -0.18985
H     2.98596  -0.70140  -0.63445
H     4.29314   0.43780  -0.15908
C     3.50546   0.56558   2.23842
H     4.55342   0.76508   2.15170
C     2.70924   0.49951   3.32609
H     2.96372   0.64726   4.35250
C     1.43362   0.09619   1.55130
C     0.36116   0.10147   3.89859
C    -0.01852   1.52646   4.30666
H    -0.39834   2.06433   3.44067
H     0.83937   2.06182   4.70733
H    -0.79425   1.49609   5.06583
C    -0.86082  -0.62247   3.35041
H    -1.34862  -0.02158   2.58695
H    -1.57723  -0.76995   4.15401
H    -0.58084  -1.59960   2.96124
C     0.88190  -0.69443   5.10463
H     0.04384  -0.96122   5.74187
H     1.57851  -0.12373   5.71176
H     1.36499  -1.61229   4.77743
Cl   -1.40661   0.16650  -1.90814
Cl   -1.02543   1.90972   0.96681
N     1.22674   1.44139  -0.96105
N     2.70883   0.30904   1.16255
N     1.44166   0.20078   2.89892
N    -1.06262  -1.17657   0.50254
O    -1.82571  -2.01547   0.67457
Ru    0.00000   0.00000   0.00000
O     0.78116  -1.20078  -0.81878
