50

I     0.81872  -1.41981  -1.91144
Zn    0.00000   0.00000   0.00000
S    -5.01387   4.43657   2.63094
S    -0.57329   4.30311   5.73689
N    -0.37406   1.96206  -0.91658
N    -3.30777   4.31590   0.61286
N     1.83111   0.74253   0.95990
C    -1.72200   3.93175  -1.10947
C     4.02199   1.53003   2.46485
H     4.87392   1.80268   3.06849
C    -2.54293   4.12774   3.82531
H    -1.99257   4.61411   3.01785
H    -2.94906   4.90760   4.47392
N     1.94160   4.87753   5.71207
C    -2.90820   4.64321  -0.61429
C     2.53051   3.11120   3.73108
C     1.70952   1.66336   1.90429
H     0.72667   2.08152   2.06748
C    -4.41312   4.88694   1.06785
C     2.77156   2.10352   2.68925
N     1.26854   3.24819   4.13404
C     3.03231   0.21641   0.73855
H     3.09944  -0.52753  -0.04300
C     4.15078   0.57983   1.46767
H     5.10094   0.11329   1.26281
C     3.18168   4.76621   5.29124
H     3.90567   5.40401   5.78116
C    -3.61453   5.56733  -1.38145
H    -3.32288   5.82832  -2.38417
C     0.37848   2.39686  -1.92395
H     1.19266   1.75603  -2.23165
C     1.03145   4.11356   5.10864
C    -3.70163   3.32684   3.24946
H    -4.18531   2.73281   4.02334
H    -3.39600   2.67540   2.43552
N    -5.15093   5.78376   0.41525
C    -4.74809   6.11709  -0.79103
H    -5.35815   6.84674  -1.30715
C    -1.38930   2.71380  -0.52190
H    -1.99441   2.34922   0.29552
C    -0.92133   4.38589  -2.15416
H    -1.11673   5.33324  -2.63314
C    -1.60603   3.25200   4.64856
H    -0.93286   2.65308   4.04137
H    -2.17328   2.60006   5.31132
C     0.14497   3.60213  -2.56190
H     0.78761   3.91586  -3.36895
C     3.55203   3.88273   4.28311
H     4.57239   3.81628   3.94723
O    -1.05823  -0.07955   1.26345
