51

Pd    0.00000   0.00000   0.00000
I    -1.08091  -1.04277   2.13057
N     0.42132  -2.63061  -1.32731
N     2.21388  -3.51486  -0.42574
N    -0.83878   1.77014   0.42346
C     0.83932  -1.73433  -0.38228
C     1.95667  -2.29912   0.19418
C     1.26845  -3.70706  -1.36708
C     1.05608  -4.72823  -2.29341
H     1.73715  -5.56266  -2.34175
C    -0.02661  -4.64693  -3.13923
C    -0.89920  -3.53510  -3.03745
H    -1.75657  -3.47554  -3.68744
C    -0.66250  -2.54740  -2.13667
H    -1.28957  -1.66635  -2.00486
C    -0.30865  -5.70368  -4.15527
H    -0.31468  -5.26926  -5.15404
H    -1.29096  -6.14067  -3.98018
H     0.43735  -6.49283  -4.12096
C     3.32099  -4.40980  -0.19109
H     4.07754  -3.86213   0.37436
H     3.75061  -4.68866  -1.15920
C     2.88829  -5.66397   0.56538
H     2.41765  -5.40260   1.51014
H     3.75487  -6.28723   0.76797
H     2.17288  -6.23938  -0.01687
C     2.66110  -1.69700   1.31680
C     3.15701  -2.42564   2.39615
H     3.07291  -3.50070   2.41477
C     3.70744  -1.78122   3.48722
H     4.07445  -2.36811   4.31707
C     3.77593  -0.39586   3.54691
C     3.27973   0.33437   2.47210
H     3.33250   1.41444   2.49754
C     2.72670  -0.29713   1.37594
H     2.39210   0.30453   0.52209
C     4.38469   0.29516   4.72670
H     4.27720  -0.30625   5.62618
H     3.91934   1.26415   4.89187
H     5.44944   0.45824   4.55343
C    -0.26450   2.57907   1.30776
H     0.66064   2.22252   1.76144
C    -0.81047   3.80300   1.64911
H    -0.31366   4.43458   2.36854
C    -2.00114   4.19198   1.05409
H    -2.45480   5.14010   1.29982
C    -2.59917   3.33826   0.14006
H    -3.52734   3.59837  -0.34359
C    -1.98118   2.13516  -0.14886
H    -2.41196   1.43538  -0.86545
O     0.52057   0.57496  -1.45634
