36

Ru    0.00000   0.00000   0.00000
Cl    1.09346  -0.10542   2.12623
O     2.52775  -0.29433  -1.57529
C     1.56608  -0.18707  -0.97603
O     0.17217   2.98670  -0.19569
C     0.12917   1.85001  -0.13413
N    -3.31425  -1.14518   2.11070
C    -2.18106  -1.17898   1.39428
C    -3.57999   0.14310   2.25674
N    -1.72998   0.03266   1.08673
N    -2.61455   0.86816   1.63212
H    -2.51361   1.86940   1.54934
C    -1.42127  -2.31870   0.94007
C    -1.77809  -3.64545   1.18542
H    -2.67269  -3.87533   1.74516
N    -1.04663  -4.65014   0.74870
C     0.04573  -4.34580   0.06527
H     0.63975  -5.17571  -0.28860
C     0.42201  -3.03227  -0.19191
H     1.31958  -2.80652  -0.75246
N    -0.31054  -2.01186   0.24411
C    -4.71198   0.68546   2.96837
C    -4.91489   2.05907   3.10883
H    -4.22134   2.76809   2.68135
C    -6.01027   2.52764   3.80559
H    -6.15672   3.59265   3.91026
C    -6.92746   1.65154   4.37750
C    -6.72010   0.28220   4.23156
H    -7.42370  -0.40999   4.66985
C    -5.63048  -0.19925   3.53884
H    -5.46396  -1.25829   3.42486
C    -8.12185   2.16522   5.11473
H    -7.95425   3.17664   5.47580
H    -8.36287   1.52101   5.95707
H    -8.98590   2.18168   4.44969
O    -0.98950  -0.14917  -1.31192
