23

Pd    0.00000   0.00000   0.00000
N     1.00468  -1.23153  -1.30255
C     2.44077  -0.94578  -1.15987
C     3.28707  -1.82405  -2.07568
H     0.71767  -1.05775  -2.27217
H     0.83079  -2.21836  -1.08158
H     2.72356  -1.12115  -0.11220
H     2.60634   0.11293  -1.40314
H     3.02234  -1.65855  -3.11864
H     4.33962  -1.58805  -1.94929
H     3.14189  -2.87678  -1.83927
Br    0.14503  -1.70859   1.72454
N    -1.00468   1.23153   1.30255
C    -2.44077   0.94578   1.15987
C    -3.28707   1.82405   2.07568
H    -0.71767   1.05775   2.27217
H    -0.83079   2.21836   1.08158
H    -2.72356   1.12115   0.11220
H    -2.60634  -0.11293   1.40314
H    -3.02234   1.65855   3.11864
H    -4.33962   1.58805   1.94929
H    -3.14189   2.87678   1.83927
O    -0.09840   1.15923  -1.17005
