50

Ni    0.00000   0.00000   0.00000
Cl    0.49427   1.39173  -1.53582
S    -1.58415   2.08594   0.86064
S     1.51256   1.00536   1.30054
N    -1.47056  -0.81508  -1.11231
N     1.50965  -1.50564  -0.87185
C     0.44139   1.45797   2.71829
C     2.45529  -0.37930   1.89424
C     2.63381  -0.60725   3.25020
C     3.41777  -1.66131   3.68459
C     4.04039  -2.48593   2.76690
C     3.86401  -2.25413   1.41391
C     3.08222  -1.20467   0.95386
C     2.86174  -1.04511  -0.52689
C     1.33952  -1.70625  -2.30819
C    -0.06775  -2.20531  -2.63972
C    -0.54322   2.53177   2.29227
C    -2.69960   0.81828   1.41219
C    -3.11520   0.71382   2.73001
C    -4.00667  -0.27585   3.10155
C    -4.50296  -1.15354   2.15569
C    -4.09567  -1.04033   0.83766
C    -3.19740  -0.06072   0.44333
C    -2.71391  -0.03093  -0.98525
C    -1.16877  -1.15116  -2.50701
H    -1.62920  -1.69575  -0.61127
H     1.36515  -2.40471  -0.40610
H     1.07855   1.85645   3.51030
H    -0.06871   0.55060   3.04811
H     2.15728   0.02365   3.98230
H     3.53896  -1.83190   4.74365
H     4.65412  -3.30918   3.09962
H     4.34322  -2.90287   0.69417
H     3.62422  -1.62599  -1.07106
H     2.95076   0.00451  -0.82936
H     1.51263  -0.74717  -2.80205
H     2.07574  -2.43411  -2.69101
H    -0.06723  -2.55158  -3.67486
H    -0.30672  -3.06157  -2.00138
H    -1.18111   2.82024   3.12766
H    -0.01182   3.41535   1.93331
H    -2.73854   1.39425   3.47819
H    -4.31130  -0.35758   4.13421
H    -5.19655  -1.92917   2.44240
H    -4.47618  -1.73270   0.09919
H    -2.51892   0.99227  -1.32089
H    -3.48961  -0.46496  -1.63425
H    -2.08002  -1.54300  -2.98633
H    -0.87035  -0.23640  -3.02448
O    -0.35305  -1.07314   1.20259
