63

Pd    0.00000   0.00000   0.00000
P    -0.18739   1.36971  -1.75231
O    -1.91882   1.23069   1.72628
N    -2.68552   1.60463  -0.89183
N    -2.73658   3.89745  -0.57185
N     0.14297  -1.43475   1.53644
C     0.39338   3.09989  -1.74865
C     0.70115   3.79606  -2.91025
C     1.04440   5.13476  -2.84047
C     1.07885   5.78413  -1.61775
C     0.78588   5.08899  -0.45546
C     0.44970   3.75115  -0.52094
C     0.54864   0.57773  -3.20509
C     1.53247  -0.37327  -2.94549
C     2.11927  -1.06645  -3.98721
C     1.71946  -0.81869  -5.29122
C     0.72697   0.11223  -5.55107
C     0.13549   0.80959  -4.51222
C    -2.00047   1.64183  -2.15645
C    -2.55562   2.68762  -0.06215
C    -2.24766   2.49918   1.30747
C    -2.21009   3.59859   2.13561
C    -2.45300   4.85820   1.59073
C    -2.68622   4.94736   0.23373
C    -1.11342  -2.06625   1.92757
C     1.03189  -2.44274   0.95468
C     0.79137  -0.79703   2.69147
C     1.82368   0.18263   2.19468
C     1.59779   0.76590   0.93987
C     2.59749   1.58266   0.42264
C     3.74190   1.87002   1.15238
C     3.92024   1.33061   2.41339
C     2.96488   0.47123   2.92771
H     0.68315   3.29118  -3.86523
H     1.28448   5.67409  -3.74529
H     1.34140   6.83068  -1.57025
H     0.82156   5.58956   0.50080
H     0.24207   3.18803   0.38148
H     1.81463  -0.57087  -1.90765
H     2.87980  -1.80706  -3.78694
H     2.17198  -1.36388  -6.10644
H     0.40522   0.28805  -6.56733
H    -0.65784   1.51620  -4.71319
H    -2.16387   2.61471  -2.62675
H    -2.36075   0.82635  -2.78866
H    -2.55407   0.70059  -0.42730
H    -1.65541   1.27856   2.65481
H    -1.95949   3.48801   3.18370
H    -2.43099   5.73848   2.21247
H    -2.83955   5.90266  -0.24917
H    -1.81025  -1.31244   2.29805
H    -0.94706  -2.82233   2.70784
H    -1.56486  -2.54424   1.05724
H     1.18250  -3.27983   1.65279
H     2.00594  -1.99745   0.72821
H     0.58799  -2.82967   0.03238
H     1.24099  -1.55747   3.35117
H     0.02414  -0.26916   3.27226
H     2.49280   2.01251  -0.56799
H     4.49798   2.51573   0.72835
H     4.80748   1.55878   2.98588
H     3.11052   0.01424   3.89793
O    -1.06289  -0.92890  -0.85435
