37

Pt    0.00000   0.00000   0.00000
Cl   -0.50594   1.06344  -1.95806
N     1.91021   0.54483  -0.24180
N     1.70668  -1.74972   1.47677
N     0.16121  -1.23193   2.87809
C     0.43843  -3.11738  -0.64783
H     0.22220  -3.44159   0.35989
C    -0.37382  -3.54530  -1.68369
H    -1.22517  -4.17095  -1.46463
C    -0.10790  -3.15924  -2.98563
H    -0.75677  -3.47609  -3.78757
C     0.98973  -2.36138  -3.25456
H     1.20668  -2.05780  -4.26715
C     1.80542  -1.92809  -2.22455
H     2.65893  -1.30337  -2.44652
C     1.52190  -2.28052  -0.90773
C     2.42436  -1.77859   0.22096
H     3.29143  -2.44028   0.33459
C     2.88232  -0.36828  -0.09811
C     4.21801  -0.04245  -0.25138
H     4.97542  -0.80203  -0.13093
C     4.56499   1.26108  -0.57945
H     5.59970   1.53498  -0.71347
C     3.55114   2.19368  -0.73686
H     3.77140   3.21543  -1.00005
C     2.23844   1.79831  -0.55664
H     1.41488   2.48707  -0.68664
C     0.58152  -1.01567   1.62451
C     1.01666  -2.09151   3.51465
H     0.86642  -2.40243   4.52801
C     1.99160  -2.42108   2.63278
H     2.83658  -3.07052   2.73448
C    -1.00738  -0.64230   3.47348
H    -1.67059  -0.31586   2.66988
H    -0.73022   0.21241   4.09311
H    -1.51963  -1.38012   4.08855
O    -1.57177  -0.46056   0.19977
