44

Hg    0.00000   0.00000   0.00000
Cl   -1.69444  -1.24890  -0.86778
N     1.10588  -1.73216   1.42906
N     0.50914   0.75924   2.28131
N    -1.30327   2.01625   0.71640
N     6.22654   5.25475   6.52910
H     7.18971   5.17071   6.25173
H     5.95342   6.14877   6.90020
C     1.18324  -3.01735   1.12461
H     0.67733  -3.31950   0.21653
C     1.86055  -3.93727   1.91082
H     1.90252  -4.97534   1.62241
C     2.47159  -3.48781   3.07005
H     3.00144  -4.17251   3.71601
C     2.38805  -2.14416   3.39266
H     2.83343  -1.77190   4.30178
C     1.69869  -1.28485   2.53944
C     1.57526   0.16145   2.80897
C     2.52571   0.86397   3.53842
H     3.39004   0.36044   3.94044
C     2.37436   2.23948   3.72164
C     1.24184   2.84084   3.17026
H     1.11089   3.90855   3.24348
C     0.33717   2.06797   2.45407
C    -0.85119   2.65131   1.80090
C    -1.47726   3.79691   2.28752
H    -1.11747   4.27733   3.18365
C    -2.58240   4.29474   1.61912
H    -3.08405   5.18175   1.97730
C    -3.03443   3.63371   0.48885
H    -3.88995   3.98911  -0.06281
C    -2.36151   2.49197   0.08042
H    -2.68330   1.93116  -0.78769
C     3.37200   3.02459   4.44607
C     2.99433   4.10196   5.24960
H     1.94747   4.34058   5.36659
C     3.93312   4.84627   5.92718
H     3.62316   5.66974   6.55439
C     5.29464   4.54968   5.81419
C     5.67612   3.47502   5.00520
H     6.72552   3.24035   4.90053
C     4.73168   2.72465   4.34279
H     5.05263   1.91845   3.70050
O     1.37649   0.78083  -0.46699
