39

Ni    0.00000   0.00000   0.00000
O    -1.83766  -1.63479  -0.02940
H    -2.46134  -1.00991  -0.43102
N     0.27142  -0.15020  -1.86713
N     1.33833  -0.30041  -3.77650
C     1.45055  -0.25982  -2.43991
H     2.38382  -0.33289  -1.91772
C    -0.64311  -0.11311  -2.87564
H    -1.69168   0.01219  -2.69147
C     0.00889  -0.20571  -4.06794
H    -0.35939  -0.21215  -5.07304
C    -1.83677  -2.84581  -0.74944
H    -1.60199  -2.69471  -1.80826
H    -2.80670  -3.34972  -0.66417
H    -1.06543  -3.47329  -0.30578
C     2.41010  -0.40650  -4.72414
H     3.34421  -0.57336  -4.19140
H     2.49346   0.51062  -5.31159
H     2.23270  -1.24224  -5.40327
Cl   -1.60827   1.41936  -0.35392
O     1.83749   1.63530   0.02921
H     2.46165   1.01103   0.43097
N    -0.27129   0.15009   1.86713
N    -1.33851   0.29853   3.77646
C    -1.45057   0.25845   2.43985
H    -2.38386   0.33100   1.91764
C     0.64317   0.11322   2.87571
H     1.69183  -0.01124   2.69155
C    -0.00903   0.20471   4.06799
H     0.35914   0.21095   5.07313
C     1.83571   2.84676   0.74854
H     1.59944   2.69630   1.80711
H     2.80577   3.35064   0.66436
H     1.06501   3.47400   0.30344
C    -2.41054   0.40285   4.72399
H    -3.34472   0.56909   4.19120
H    -2.49304  -0.51479   5.31075
H    -2.23414   1.23828   5.40375
O     1.22112  -1.07681   0.26806
