57

Re    0.00000   0.00000   0.00000
Cl   -1.88307   1.26966   0.03203
Cl    0.35134   0.79084  -2.12261
O    -0.58567  -1.49945  -0.35880
S     2.33237  -1.31886   0.23397
C     3.46229  -0.36893  -0.54951
N     4.76422  -0.82598  -0.60076
H     4.96425  -1.70685  -0.14203
C     5.73584  -0.13998  -1.24424
C     5.39172   1.01964  -1.88469
H     6.12470   1.58966  -2.42980
C     4.04335   1.45459  -1.81163
N     3.15439   0.78000  -1.12847
C     3.56342   2.67672  -2.49871
H     2.52305   2.51795  -2.77921
H     4.17209   2.90760  -3.36846
H     3.59431   3.52319  -1.81237
C     7.10759  -0.71634  -1.21456
H     7.42657  -0.87125  -0.18480
H     7.81347  -0.05748  -1.71053
H     7.11804  -1.68298  -1.71719
O     1.11846   1.84576   0.47637
P     1.80117   2.58361   1.58365
C     3.36231   1.75737   2.02026
C     3.31120   0.60049   2.78889
H     2.36074   0.26671   3.18328
C     4.47040  -0.11969   3.01935
H     4.43190  -1.01999   3.61338
C     5.67400   0.31085   2.48364
H     6.57865  -0.25060   2.66982
C     5.72308   1.46320   1.71488
H     6.66188   1.80074   1.29890
C     4.56658   2.18571   1.47873
H     4.59602   3.08432   0.87748
C     0.79578   2.84236   3.06570
C     1.34117   2.88142   4.34067
H     2.39721   2.69978   4.48586
C     0.51766   3.13381   5.42329
H     0.93300   3.15290   6.42034
C    -0.83680   3.35175   5.23085
H    -1.47617   3.53671   6.08136
C    -1.37520   3.32655   3.95385
H    -2.43157   3.49028   3.80526
C    -0.55922   3.08034   2.86633
H    -0.97058   3.03574   1.86654
C     2.18208   4.24705   0.97809
C     2.89558   5.14579   1.76130
H     3.25301   4.84044   2.73524
C     3.13948   6.42089   1.28610
H     3.69603   7.12384   1.88821
C     2.66384   6.79927   0.03883
H     2.85441   7.79749  -0.32656
C     1.94020   5.90619  -0.73446
H     1.56361   6.20617  -1.70087
C     1.69530   4.62675  -0.26493
H     1.12972   3.91341  -0.84773
O    -0.04389  -0.05190   1.64860
