55

Pt    0.00000   0.00000   0.00000
P     1.36161  -1.04893   1.45730
N    -1.16433   0.99939  -1.33437
N     1.18481   0.44258  -3.97580
C    -0.66173   1.08661  -2.58077
C    -1.33573   1.76292  -3.59303
C    -2.55175   2.35549  -3.31160
C    -3.06059   2.25401  -2.02344
C    -2.33413   1.56846  -1.06513
C     0.61736   0.41170  -2.77111
C     1.14725  -0.24179  -1.63975
C     2.35503  -0.90645  -1.85079
C     2.95471  -0.88301  -3.09974
C     2.33057  -0.18891  -4.12893
C     1.01348  -0.95479   3.24002
C     0.01801  -1.78326   3.75220
C    -0.32669  -1.70749   5.08703
C     0.31499  -0.80235   5.91848
C     1.29825   0.02883   5.41018
C     1.64704  -0.04078   4.07239
C     1.55321  -2.84181   1.22904
C     0.98056  -3.41895   0.10092
C     1.08750  -4.78127  -0.11319
C     1.76257  -5.57293   0.80193
C     2.31546  -5.00504   1.93932
C     2.20758  -3.64393   2.15965
C     3.02243  -0.31038   1.33968
C     3.03337   1.04227   1.00530
C     4.22930   1.72408   0.89235
C     5.42461   1.05354   1.10319
C     5.41854  -0.29379   1.42357
C     4.22117  -0.97901   1.54506
H    -0.88214   1.80066  -4.57002
H    -3.09660   2.88649  -4.07788
H    -4.00665   2.69935  -1.76012
H    -2.69267   1.47130  -0.04729
H     2.83318  -1.45019  -1.04424
H     3.88986  -1.39413  -3.27490
H     2.76463  -0.14017  -5.11943
H    -0.49076  -2.47256   3.09113
H    -1.10383  -2.34671   5.47965
H     0.04060  -0.73927   6.96126
H     1.79159   0.74136   6.05535
H     2.40689   0.61769   3.67451
H     0.44298  -2.78100  -0.59461
H     0.64113  -5.22749  -0.98948
H     1.84766  -6.63682   0.63676
H     2.82572  -5.62743   2.66007
H     2.61117  -3.20404   3.06187
H     2.08079   1.54251   0.82836
H     4.23452   2.77283   0.63483
H     6.36245   1.58093   1.01052
H     6.35191  -0.81552   1.57738
H     4.22304  -2.03299   1.78208
O    -1.00927   0.30326   1.26961
