40

Co    0.00000   0.00000   0.00000
N     0.78117  -0.09411  -1.46505
N    -0.62002   1.39787   0.45590
O     1.02625  -1.20586  -1.07548
O    -1.09670   2.14036   1.23255
P     1.20443  -0.44031   1.97617
C     2.37075  -1.79289   1.65196
C     3.74707  -1.59932   1.61377
C     4.57778  -2.66060   1.29977
C     4.04265  -3.90572   1.01348
C     2.66939  -4.09678   1.03929
C     1.83164  -3.04404   1.35063
C     2.25433   0.91247   2.59485
C     2.68596   1.87995   1.69222
C     3.50104   2.91246   2.11796
C     3.88156   2.98661   3.44817
C     3.44941   2.02733   4.35032
C     2.63729   0.98996   3.92993
C     0.30264  -0.96443   3.46501
C    -0.83137  -0.23587   3.81657
C    -1.55684  -0.58564   4.93920
C    -1.15505  -1.66040   5.71569
C    -0.02430  -2.38225   5.37115
C     0.70661  -2.04133   4.24725
H     4.16526  -0.62596   1.83088
H     5.64716  -2.51140   1.27385
H     4.69648  -4.72764   0.76310
H     2.25079  -5.06463   0.80842
H     0.75877  -3.18627   1.36317
H     2.37743   1.81949   0.65351
H     3.83402   3.66106   1.41478
H     4.51242   3.79605   3.78329
H     3.74481   2.08822   5.38718
H     2.29755   0.24248   4.63282
H    -1.15032   0.59900   3.20788
H    -2.44117  -0.02562   5.20168
H    -1.72673  -1.93929   6.58788
H     0.28948  -3.21986   5.97642
H     1.58489  -2.61146   3.97834
O    -1.28460  -0.99460   0.28822
