32

Zn    0.00000   0.00000   0.00000
Cl    1.53872   1.60616   0.25114
O    -1.28079   1.63307  -2.04459
N    -0.72095   0.72265  -4.01357
N    -0.14477  -0.35556  -2.01623
H     0.24205  -1.09855  -2.57598
N    -1.33732   3.76762  -0.47412
H    -0.95383   3.85249  -1.40249
H    -1.20246   4.54075   0.15513
N    -1.45894   1.44483  -0.64679
C    -1.42324   1.79769  -4.67774
H    -1.94114   1.40125  -5.55132
H    -0.72965   2.58032  -4.99753
H    -2.15607   2.22887  -4.00099
C    -1.46094   2.53615   0.04462
C    -1.10666   2.96662   3.75010
H    -0.53658   3.56715   4.44302
C    -1.66905   2.37343   1.49054
C    -0.95366   3.16123   2.38999
H    -0.23583   3.88397   2.03028
C    -0.68499   0.60986  -2.67205
C    -2.53678   1.39325   1.96963
H    -3.08833   0.78623   1.26956
C    -2.68732   1.21000   3.33115
H    -3.35111   0.44174   3.69587
C     0.04963  -0.18500  -4.83751
H    -0.42507  -1.16846  -4.89557
H     1.06223  -0.29761  -4.44531
H     0.11671   0.22891  -5.84035
C    -1.97265   1.99395   4.22203
H    -2.08083   1.83937   5.28513
O    -0.55523  -1.06958   1.12704
