23

Pt    0.00000   0.00000   0.00000
Cl    1.64752  -0.46695  -1.47942
O     0.79478   1.85653   0.37305
O    -1.03578  -1.72951  -0.39213
N    -0.93314   1.02422  -1.69196
N    -1.57131   0.29716   1.49197
C     0.11623   2.78211  -0.37741
C    -0.15120   2.26854  -1.80464
C    -2.26725  -1.64644   0.20494
C    -2.17213  -1.04260   1.61877
H    -1.92711   1.22136  -1.59130
H    -0.79531   0.42685  -2.50719
H    -2.27372   0.99544   1.25510
H    -1.10542   0.57601   2.35532
H     0.72869   3.69458  -0.43089
H    -0.85736   3.06115   0.08517
H    -0.67255   3.01861  -2.40866
H     0.80960   2.02131  -2.26052
H    -2.68390  -2.66243   0.27303
H    -2.98010  -1.03388  -0.39222
H    -3.15386  -1.00008   2.10219
H    -1.49107  -1.66208   2.20564
O     0.81406  -0.72203   1.24036
