19

Hg    0.00000   0.00000   0.00000
Br   -1.07209   0.53616   2.13809
S    -1.14876   2.57162  -1.44441
S     0.34530   4.77112   0.00832
S     1.53932   4.25308  -1.56299
S     2.14970   2.24094   0.61859
N    -1.99965   3.84428   0.72685
N     3.28487   2.30942  -1.78266
C    -1.02341   3.66949  -0.22366
C    -3.01110   2.97440   0.82921
C    -4.06563   2.45265   0.48465
C    -1.91994   4.87935   1.57631
C    -1.48185   5.53639   2.51508
C     2.38202   2.84387  -0.89587
C     3.55826   2.95997  -2.92333
C     3.34937   3.39633  -4.05071
C     3.86888   1.13228  -1.53047
C     4.65804   0.38283  -0.96602
O     0.70771  -0.42740  -1.42793
