68

Re    0.00000   0.00000   0.00000
Br    0.06577   2.53918  -0.85552
Br    0.24492  -1.03314  -2.56871
N    -2.37173  -0.24536   2.07953
C    -1.48550  -0.18540   1.31228
C    -3.40726  -0.29279   2.95066
C    -3.16455  -0.24612   4.32364
C    -4.22824  -0.28544   5.20002
C    -5.53995  -0.37143   4.73933
C    -5.76296  -0.42140   3.36783
C    -4.71323  -0.38299   2.47195
C    -6.67655  -0.39965   5.71205
N     0.75304  -3.06089   0.31775
C     0.38732  -1.95367   0.29357
C     1.30460  -4.28525   0.13065
C     1.11808  -5.28869   1.07814
C     1.69316  -6.52465   0.86852
C     2.45200  -6.78124  -0.27092
C     2.62505  -5.76504  -1.20429
C     2.05973  -4.52012  -1.01652
C     3.07123  -8.12893  -0.47056
N    -2.60604   0.54279  -1.75573
C    -1.65690   0.27119  -1.12709
C    -3.47021   1.01340  -2.69089
C    -4.67371   0.35325  -2.92021
C    -5.53883   0.84562  -3.87606
C    -5.22738   1.98801  -4.60740
C    -4.02165   2.63543  -4.35753
C    -3.14016   2.16187  -3.40781
C    -6.18510   2.51769  -5.62859
N     1.15122   1.78035   2.37419
C     0.73403   1.06392   1.55035
C     1.75006   2.77193   3.08153
C     2.16973   2.53979   4.38768
C     2.77004   3.56349   5.09285
C     2.95555   4.81766   4.52014
C     2.52826   5.02745   3.21210
C     1.92766   4.01994   2.48657
C     3.62456   5.91525   5.28675
H    -2.14884  -0.17697   4.68172
H    -4.04222  -0.24809   6.26337
H    -6.77399  -0.49030   2.99420
H    -4.88722  -0.41816   1.40745
H    -7.62646  -0.52894   5.20058
H    -6.71038   0.53186   6.27622
H    -6.54861  -1.21287   6.42479
H     0.53073  -5.08950   1.96193
H     1.55381  -7.30743   1.59995
H     3.21131  -5.94880  -2.09226
H     2.19080  -3.73042  -1.73995
H     3.84019  -8.30361   0.28168
H     2.32196  -8.91218  -0.36625
H     3.52673  -8.20765  -1.45392
H    -4.91249  -0.53874  -2.36051
H    -6.47175   0.33339  -4.06195
H    -3.76625   3.52293  -4.91726
H    -2.20399   2.66216  -3.21288
H    -5.67383   3.14997  -6.34992
H    -6.67707   1.70363  -6.15656
H    -6.95642   3.11474  -5.14063
H     2.02981   1.56570   4.83171
H     3.10135   3.38647   6.10579
H     2.66912   5.99533   2.75430
H     1.59568   4.17996   1.47207
H     3.24550   6.88772   4.98170
H     4.69806   5.89863   5.09567
H     3.47145   5.79330   6.35643
O     1.64911  -0.05391  -0.00384
