29

C     0.05186   3.21097  -0.15649
H    -0.65579   2.87814   0.60430
H     0.07728   4.29685  -0.17323
H     1.03409   2.82952   0.12544
C    -0.34101   2.65433  -1.47767
C    -0.65544   3.46819  -2.56593
H    -0.61534   4.54140  -2.46699
C    -1.01646   2.87704  -3.76120
H    -1.26859   3.48350  -4.61845
C    -1.05419   1.49455  -3.85172
H    -1.33657   1.02821  -4.78021
C    -0.72430   0.73786  -2.73032
N    -0.38187   1.33233  -1.58549
Cl    2.15432   0.00000   0.47249
Zn    0.00000   0.00000   0.00000
C     0.05187  -3.21097  -0.15649
H    -0.65579  -2.87814   0.60430
H     0.07729  -4.29685  -0.17323
H     1.03409  -2.82952   0.12544
C    -0.34101  -2.65433  -1.47767
C    -0.65544  -3.46819  -2.56593
H    -0.61534  -4.54140  -2.46699
C    -1.01647  -2.87704  -3.76120
H    -1.26859  -3.48350  -4.61845
C    -1.05419  -1.49455  -3.85172
H    -1.33658  -1.02821  -4.78021
C    -0.72430  -0.73786  -2.73032
N    -0.38187  -1.33233  -1.58549
O    -1.32776  -0.00000   0.97956
