41

Hg    0.00000   0.00000   0.00000
O     0.01299   1.57151  -2.75254
O     1.03255  -1.49158   2.59922
N     1.96371   0.52502  -1.31510
N     2.80769  -0.00016  -0.53422
N     2.31061  -0.51985   0.50528
C     1.26920   1.70293  -3.26046
C     2.31334   1.14132  -2.49010
C     3.63078   1.23074  -2.93747
H     4.40951   0.79398  -2.33190
C     3.92282   1.86522  -4.12832
H     4.94509   1.93014  -4.46750
C     2.90127   2.41565  -4.88162
H     3.12179   2.91373  -5.81335
C     1.58427   2.33654  -4.45336
H     0.81119   2.77563  -5.06312
C     2.38379  -1.65589   2.59266
C     3.06781  -1.13488   1.47022
C     4.45369  -1.25933   1.38322
H     4.95247  -0.85368   0.51687
C     5.16316  -1.88824   2.38682
H     6.23564  -1.98038   2.31195
C     4.49393  -2.39779   3.48524
H     5.04171  -2.89060   4.27386
C     3.11544  -2.28373   3.58979
H     2.62353  -2.69109   4.45836
C    -1.07023   2.12705  -3.48109
H    -1.11886   1.66723  -4.47771
H    -0.91996   3.20952  -3.59516
C    -2.35104   1.85292  -2.71474
H    -3.19752   2.27848  -3.24586
H    -2.29885   2.29777  -1.72373
H    -2.50528   0.78182  -2.60970
C     0.29877  -1.98137   3.71022
H     0.65308  -1.49350   4.62878
H     0.44856  -3.06583   3.80241
C    -1.16982  -1.67264   3.48470
H    -1.75548  -2.02554   4.32855
H    -1.52375  -2.16432   2.58192
H    -1.31657  -0.60017   3.37953
O    -1.62540  -0.05186   0.27908
