23

Pd    0.00000   0.00000   0.00000
N     1.33977   0.20945  -1.62639
N     1.02895  -1.80849   0.40154
C     3.16695  -1.21321  -2.40883
C     2.91051  -2.88187  -0.73125
C     3.73891  -2.51869  -1.93172
O     4.65750  -3.13655  -2.40607
C     1.95474  -1.87338  -0.54561
C     2.10947  -0.86812  -1.55598
C     2.89618  -3.93184   0.16807
C     2.64617   0.80264  -3.53465
C     1.02342  -2.82944   1.26684
C     1.62002   1.04783  -2.63127
C     3.44825  -0.34041  -3.44360
C     1.92605  -3.88115   1.17539
Cl   -1.33062  -0.33230   1.71286
H     0.27233  -2.78786   2.04478
H     3.59527  -4.75083   0.10097
H     4.24505  -0.52844  -4.14645
H     1.87205  -4.67556   1.90292
H     2.82380   1.51616  -4.32381
H     0.99845   1.93112  -2.69928
O    -0.73749   1.42425  -0.38747
