45

Cd    0.00000   0.00000   0.00000
N    -1.81916  -1.09890  -1.06704
N     0.10252  -2.33719   0.31947
Cl   -1.20000   0.17040   2.02390
O    -2.30547   0.80822  -2.04362
O     2.07580  -1.99834   1.22097
C    -2.76464  -0.37325  -1.62805
C    -4.08205  -0.86915  -1.76773
H    -4.85105  -0.27480  -2.23423
C    -4.36837  -2.12232  -1.29306
H    -5.36682  -2.52438  -1.38906
C    -3.37535  -2.88620  -0.64797
C    -3.60066  -4.16075  -0.05767
H    -4.57930  -4.60605  -0.16028
C    -2.62362  -4.79010   0.64500
H    -2.80999  -5.74572   1.11251
C    -1.34272  -4.19491   0.81488
C    -0.31767  -4.73102   1.61971
H    -0.47462  -5.67783   2.11629
C     0.85550  -4.04463   1.79856
H     1.63246  -4.43743   2.43455
C     1.02442  -2.80984   1.13169
C    -1.06604  -2.96741   0.18130
C    -2.09628  -2.30308  -0.56003
C    -3.19573   1.86746  -2.36705
H    -3.95377   1.53117  -3.08494
H    -2.55732   2.60987  -2.85194
C    -3.83840   2.46995  -1.11673
H    -4.40149   1.69667  -0.58821
H    -4.53915   3.24462  -1.43522
C    -2.78948   3.06115  -0.18188
H    -2.08722   2.29243   0.14791
H    -3.26565   3.48276   0.69922
H    -2.22721   3.84494  -0.68397
C     3.04599  -2.17105   2.24593
H     3.71029  -3.00697   1.98666
H     2.54742  -2.38512   3.19933
C     3.83106  -0.86581   2.34683
H     4.68350  -1.02655   3.00967
H     4.20453  -0.61251   1.35371
C     2.96225   0.27281   2.86820
H     2.10549   0.43351   2.21010
H     3.53587   1.19460   2.90465
H     2.59448   0.05240   3.86846
O     0.95527   1.28187  -0.40838
