68

Pd    0.00000   0.00000   0.00000
I    -1.49853   2.01761  -0.77574
P     1.65916   1.43854   0.54421
N    -2.28063  -1.71023   0.63412
N    -1.95895  -1.76493  -1.49300
C    -1.49225  -1.24765  -0.35166
C    -3.03952  -2.56621  -1.22775
C    -3.24628  -2.53027   0.11054
C    -1.39760  -1.49057  -2.78961
C    -2.09134  -1.28108   1.98206
C    -2.88656  -0.24903   2.48988
C    -2.60625   0.22535   3.76405
C    -1.57834  -0.30579   4.53021
C    -0.85878  -1.38204   4.02845
C    -1.10662  -1.89757   2.76355
C    -0.39022  -3.11954   2.27472
C    -4.02218   0.31130   1.69245
C    -1.24458   0.26256   5.87445
C     1.09835   2.74829   1.67780
C     0.02431   2.40636   2.49424
C    -0.43352   3.29271   3.44873
C     0.18700   4.52306   3.59443
C     1.26874   4.85801   2.79610
C     1.73444   3.97131   1.84182
C     2.58694   2.23879  -0.78193
C     2.10839   3.41650  -1.35315
C     2.75752   3.96383  -2.44404
C     3.87156   3.33620  -2.97824
C     4.33179   2.14954  -2.43001
C     3.68940   1.59350  -1.33968
C     2.87999   0.73436   1.69708
C     4.17819   1.20077   1.85209
C     4.99012   0.64262   2.82336
C     4.50847  -0.36181   3.64701
C     3.20464  -0.81076   3.51031
C     2.39232  -0.26079   2.53890
H    -3.56632  -3.08638  -2.00075
H    -3.98055  -3.01437   0.72108
H    -2.18491  -1.20327  -3.48706
H    -0.86937  -2.36648  -3.17290
H    -0.68357  -0.66055  -2.69533
H    -3.20574   1.03216   4.16028
H    -0.08968  -1.83530   4.63749
H     0.24766  -3.52549   3.05518
H     0.23435  -2.90322   1.40794
H    -1.10722  -3.88447   1.97565
H    -4.50734   1.11688   2.23607
H    -3.67728   0.70729   0.73833
H    -4.76103  -0.46248   1.48364
H    -0.99798  -0.52917   6.57874
H    -0.37670   0.91852   5.79139
H    -2.07429   0.84240   6.27116
H    -0.46386   1.43660   2.36409
H    -1.27535   3.02919   4.07142
H    -0.17367   5.22410   4.33266
H     1.75266   5.81629   2.91710
H     2.58097   4.23080   1.22105
H     1.22565   3.89446  -0.94919
H     2.38592   4.87790  -2.88334
H     4.37462   3.76603  -3.83198
H     5.18815   1.64933  -2.85786
H     4.03415   0.65534  -0.92502
H     4.55354   1.98764   1.21246
H     6.00522   0.99408   2.93811
H     5.15153  -0.79567   4.39845
H     2.82886  -1.59139   4.15543
H     1.36395  -0.60723   2.41536
O     1.12258  -1.11803  -0.46078
