51

Zn    0.00000   0.00000   0.00000
Cl   -0.94502   1.79893   0.91635
C     5.17915   4.23682  -1.97683
H     5.83238   5.02119  -2.32956
C     2.46398   4.02280  -4.56034
H     2.13828   4.49293  -5.47653
N     2.09012   0.47141   0.15960
N     0.42193   0.69359  -1.98678
C     4.05538   3.87010  -2.74955
C     4.60715   2.59143  -0.26881
H     4.83645   2.15572   0.69123
C     3.62423   4.45086  -3.96252
H     4.20506   5.24623  -4.40574
C     5.42634   3.61465  -0.77740
H     6.27950   3.92138  -0.19043
C     2.87810   0.11982   1.23536
C     2.41713   1.24999  -0.80283
C     1.66722   2.99584  -4.02454
H     0.75341   2.71627  -4.52543
C     1.50715   1.37280  -1.97077
C     3.26063   2.83745  -2.23844
C    -0.00248   0.31453  -4.34689
H     1.05833   0.23951  -4.53865
C     3.52235   2.18383  -1.01055
C     4.21449  -0.25785   1.08116
H     4.65767  -0.25452   0.09564
C     2.07469   2.38221  -2.86247
C     4.93692  -0.70193   2.17060
H     5.96263  -1.01268   2.03224
C    -0.45034   0.56571  -3.04707
C    -1.82335   0.56661  -2.78909
H    -2.16693   0.74494  -1.77961
C    -2.71946   0.37687  -3.81763
H    -3.77906   0.39886  -3.61040
C    -2.28193   0.13752  -5.11888
C    -0.91314   0.09324  -5.36006
H    -0.55330  -0.12175  -6.35610
C     4.36501  -0.76174   3.43613
C     2.28466   0.02108   2.49653
H     1.24572   0.29794   2.61007
C     5.14802  -1.22649   4.62294
H     6.15472  -1.52128   4.33831
H     4.65362  -2.07621   5.09150
H     5.21333  -0.43221   5.36606
C     3.02834  -0.39271   3.57897
H     2.56516  -0.44859   4.55290
C    -3.26887  -0.10343  -6.21665
H    -3.68378  -1.10758  -6.12755
H    -2.79932  -0.01389  -7.19303
H    -4.09450   0.60242  -6.15293
O    -0.36298  -1.60643   0.10072
