50

Pd    0.00000   0.00000   0.00000
Cl    2.16267   0.44615  -0.30741
N    -0.14594  -1.03683  -1.79280
N    -0.73553  -2.23451  -1.65177
N    -2.03325  -0.44590   0.23265
N    -2.27516  -1.75789   0.07130
O     1.16528  -2.64807   0.28913
O    -0.38131  -2.12161   1.86762
C     0.22075  -0.91031  -3.05377
C    -0.14475  -2.07825  -3.74894
C    -0.74576  -2.90757  -2.82832
C     0.88917   0.31982  -3.54056
C    -1.31759  -4.26886  -2.97460
C    -3.15341   0.12290   0.63938
C    -4.15068  -0.86387   0.74495
C    -3.56063  -2.05406   0.38232
C    -3.23693   1.57924   0.90094
C    -4.11198  -3.42992   0.31615
C    -1.17468  -2.58733  -0.33080
C     0.04851  -2.31849   0.61990
C     0.65576  -1.97383   2.86345
C    -0.01277  -1.95515   4.20545
C    -0.84325  -0.89002   4.53439
C    -1.48874  -0.86806   5.75723
C    -1.30770  -1.90372   6.65966
C    -0.47953  -2.96437   6.33556
C     0.16221  -2.99382   5.10893
H     0.02066  -2.28413  -4.78624
H    -5.16611  -3.40880   0.57615
H    -1.45019  -3.64459  -0.28286
H    -5.16535  -0.71786   1.05277
H    -2.37969  -4.27767  -2.72831
H     1.94326   0.12028  -3.72631
H    -0.96005  -0.08021   3.82917
H    -1.19884  -4.60125  -4.00147
H    -0.33343  -3.77177   7.03830
H     1.35945  -2.80560   2.75557
H    -0.80343  -4.97322  -2.32114
H    -3.59587  -4.08419   1.01867
H    -4.01042  -3.84779  -0.68552
H    -3.26002   1.76217   1.97421
H     0.80833  -3.82299   4.85761
H     1.17823  -1.02562   2.66430
H    -2.12959  -0.03675   6.01153
H     0.43278   0.66996  -4.46398
H     0.82141   1.09162  -2.77008
H    -4.13604   2.00059   0.45645
H    -1.80830  -1.88289   7.61678
H    -2.35204   2.07059   0.49432
O     0.03585   0.92143   1.36827
