63

C    -2.05513  -0.69183  -1.80116
C    -3.04482  -1.15866  -2.76939
C    -3.93196  -2.20812  -2.82117
H    -3.98708  -2.94520  -2.03494
C    -4.78639  -2.30730  -3.93452
H    -5.47639  -3.13724  -3.97275
C    -4.77699  -1.39661  -4.96344
H    -5.45070  -1.51306  -5.79945
C    -3.89332  -0.29451  -4.93296
C    -3.04448  -0.21621  -3.82392
C    -3.77445   0.74553  -5.88198
H    -4.39892   0.73318  -6.76305
C    -2.87939   1.76876  -5.68199
H    -2.81121   2.55896  -6.41499
C    -2.03991   1.83750  -4.55507
H    -1.36159   2.66895  -4.44082
C    -2.11506   0.83039  -3.62178
C    -1.46831   0.56287  -2.33916
C    -2.14231  -2.34529  -0.12476
C    -2.91088  -2.30936   1.04572
C    -3.30498  -3.50599   1.62063
H    -3.90847  -3.48038   2.51644
C    -2.93178  -4.72874   1.08151
C    -2.15096  -4.73597  -0.06701
H    -1.83790  -5.68198  -0.48526
C    -1.74943  -3.56667  -0.69241
C    -3.32373  -0.99403   1.62580
H    -3.90764  -0.41926   0.90624
H    -2.44421  -0.40278   1.88294
H    -3.91976  -1.13983   2.52251
C    -3.36432  -6.01703   1.71100
H    -4.17488  -6.46332   1.13379
H    -3.71735  -5.85435   2.72592
H    -2.54115  -6.72798   1.73348
C    -0.86356  -3.61791  -1.89964
H    -1.40088  -3.32029  -2.80088
H    -0.49038  -4.62817  -2.04537
H    -0.01122  -2.94977  -1.77800
C     0.05349   2.35012  -2.14206
C    -0.17408   3.56569  -1.48560
C     0.51271   4.69114  -1.91087
H     0.32831   5.63266  -1.41408
C     1.43405   4.63149  -2.94577
C     1.65733   3.40809  -3.56520
H     2.38690   3.34652  -4.36008
C     0.98030   2.25904  -3.19157
C    -1.17585   3.63768  -0.37721
H    -1.23598   4.64669   0.02124
H    -0.89513   2.95943   0.42922
H    -2.16429   3.34008  -0.72860
C     2.18690   5.84760  -3.39001
H     2.02108   6.03257  -4.45084
H     3.25631   5.70211  -3.24241
H     1.87608   6.72519  -2.82940
C     1.28386   0.94924  -3.85263
H     0.45869   0.62332  -4.48689
H     1.46223   0.17542  -3.10632
H     2.17215   1.04105  -4.47197
Cl    1.65930  -1.16946  -0.89363
N    -1.70081  -1.13200  -0.65753
N    -0.60178   1.21211  -1.66510
Zn    0.00000   0.00000   0.00000
O    -0.06964   0.68531   1.49933
