27

C    -0.46778  -3.47089  -3.23243
H    -0.55000  -4.54771  -3.19461
C    -0.34570  -2.71111  -2.07537
H    -0.32840  -3.17082  -1.09689
C    -0.26797  -0.81925  -3.33619
H    -0.18855   0.25784  -3.40929
C    -0.39087  -1.59181  -4.49134
C    -0.41577  -0.92645  -5.84098
C    -0.56849  -1.62290  -8.21718
C    -0.53432  -0.35057  -8.78382
H    -0.46429   0.51600  -8.14786
C    -0.59048  -0.20437 -10.15666
H    -0.56455   0.78000 -10.59607
C    -0.68015  -1.32395 -10.96941
C    -0.71414  -2.59610 -10.41671
H    -0.78325  -3.46165 -11.05620
C    -0.65876  -2.74158  -9.04550
H    -0.68542  -3.73004  -8.61001
N    -0.48894  -2.91674  -4.43048
N    -0.24445  -1.38211  -2.13152
N    -0.51631  -1.83471  -6.83991
H    -0.55951  -2.80104  -6.53114
Hg    0.00000   0.00000   0.00000
Cl   -0.74948  -1.13791 -12.68455
Br    0.15397   2.19738  -1.01862
O    -0.35019   0.27851  -5.95156
O    -0.05589  -1.28061   1.03895
