59

Pd    0.00000   0.00000   0.00000
P    -2.02476   0.84217   0.39178
S     0.94318   1.61046  -1.35774
S     2.12759  -0.84915  -0.36678
N     3.56755   1.21725  -1.21355
C     5.66484   0.49345  -2.24926
C     6.75504  -0.36634  -2.31008
C    -2.47934   2.49818  -0.21103
C    -3.28140  -0.18367  -0.41630
C    -4.64293   0.09285  -0.34473
C    -2.82242  -1.22570  -1.21905
C    -1.09501   1.30764   2.87221
C    -3.08506   4.97130  -1.30107
C     3.78924   2.51309  -1.80930
C    -3.72565  -2.01539  -1.90671
C     7.60216  -0.35519  -3.40117
C    -3.17377   4.77614   0.06687
C    -2.25506   0.94599   2.18574
C     4.77450   0.44817  -1.03254
C    -3.43460   0.80665   4.26421
C    -2.86960   3.54253   0.61713
C     5.42728   1.37927  -3.29592
C    -5.08427  -1.76273  -1.80134
C    -2.68769   3.93175  -2.12899
C    -2.38269   2.69972  -1.58601
C     7.36377   0.52073  -4.44779
C    -2.28863   1.18449   4.94231
C    -3.42477   0.68720   2.88383
C    -5.54075  -0.70623  -1.02901
C     4.25089   2.31525  -3.25061
C     2.35105   0.71315  -0.99381
C    -1.11384   1.43234   4.24660
C     6.28389   1.38043  -4.39052
H     6.93261  -1.04960  -1.49222
H    -4.99204   0.93914   0.23099
H    -1.74274  -1.41365  -1.29291
H    -0.16834   1.46354   2.30325
H    -3.32050   5.93685  -1.72385
H     2.86667   3.09419  -1.76700
H     4.56598   3.02603  -1.23213
H    -3.37330  -2.82769  -2.52471
H     8.44441  -1.02936  -3.43725
H    -3.47868   5.58885   0.71004
H     5.32490   0.84361  -0.16604
H     4.50165  -0.58694  -0.80967
H    -4.34117   0.59605   4.81252
H    -2.93382   3.38954   1.68566
H    -5.79037  -2.38432  -2.33183
H    -2.61195   4.08753  -3.19497
H    -2.05653   1.87848  -2.21458
H     8.01962   0.53375  -5.30523
H    -2.30396   1.27162   6.01864
H    -4.31356   0.37131   2.35862
H    -6.59959  -0.50153  -0.96584
H     3.42694   1.89038  -3.83248
H     4.51241   3.27606  -3.69662
H    -0.21667   1.70749   4.78116
H     6.09504   2.06697  -5.20338
O    -0.52149  -1.19670   1.00919
