49

Pd    0.00000   0.00000   0.00000
I    -0.38303  -2.17979   1.46326
C     1.77671  -0.63963  -0.58465
C     3.89991  -1.29286  -0.47056
H     4.83145  -1.53272  -0.00123
C     3.53009  -1.32947  -1.76982
H     4.08023  -1.60143  -2.64660
C     2.82264  -0.57204   1.65412
H     3.76655  -0.09953   1.92651
H     2.69311  -1.48795   2.23567
H     1.99799   0.11764   1.88481
C     1.51776  -0.63932  -3.05395
H     2.20216  -0.13275  -3.74147
H     0.68789   0.04063  -2.82853
C     0.98892  -1.89653  -3.74490
H     0.51186  -1.59223  -4.68466
H     1.80464  -2.58937  -3.97824
N     0.04402  -2.64818  -2.94867
C    -1.11675  -4.45124  -2.15359
C    -1.74570  -3.29184  -1.68593
C    -2.86426  -3.35894  -0.87944
H    -3.33652  -2.46268  -0.50725
C    -3.34543  -4.61977  -0.54977
H    -4.21322  -4.70543   0.08627
C    -2.72127  -5.76953  -1.01076
H    -3.11447  -6.73448  -0.72860
C    -1.59364  -5.70263  -1.82155
H    -1.09884  -6.59283  -2.17690
O     0.84893  -4.70840  -3.57195
O    -1.14644  -0.94902  -1.91489
C    -2.78851   0.95340  -0.09681
H    -2.72656   0.60732  -1.12431
C    -3.92227   1.58625   0.37767
H    -4.76516   1.73485  -0.27973
C    -3.96132   2.03752   1.69285
C    -2.82972   1.81656   2.47381
H    -2.79600   2.14892   3.49973
C    -1.73980   1.16984   1.92658
H    -0.84558   0.98803   2.52336
C    -5.16795   2.71499   2.25137
H    -4.88409   3.46761   2.98328
H    -5.80039   1.98100   2.75248
H    -5.75145   3.18319   1.46240
N    -1.72324   0.74382   0.66665
C    -0.98069  -2.13134  -2.16556
C     0.03885  -4.04481  -2.97328
N     2.22351  -0.91263  -1.82644
N     2.81527  -0.85359   0.24136
O     0.44272   1.51429  -0.48315
