37

N    -0.10964  -0.96900   1.86495
C    -1.27622  -1.80238   1.99212
C    -2.44219  -0.97376   1.45156
N    -1.95945  -0.27302   0.26489
N     0.57670  -0.59448   2.82431
N    -2.68986   0.14017  -0.67429
O    -3.92170  -0.00955  -0.66872
O     1.46241   0.24668   2.65699
N     2.05225   0.18014  -0.35223
C     2.41906   0.98183  -1.36376
C     3.76330   1.13143  -1.69903
C     4.72530   0.44301  -0.98199
C     4.32009  -0.41204   0.02971
C     2.96714  -0.51725   0.30515
N     0.10377   1.12543  -1.91669
C     1.33510   1.60976  -2.13350
C     1.54310   2.61662  -3.07414
C     0.46931   3.08846  -3.80931
C    -0.78524   2.53818  -3.59977
C    -0.92363   1.56257  -2.62502
N    -0.09887   1.74211   0.92090
O    -0.89788   1.87488   1.80896
O     0.62558   2.59552   0.46143
Pt    0.00000   0.00000   0.00000
H    -1.12919  -2.69280   1.37071
H    -1.42289  -2.08716   3.03578
H    -2.76420  -0.22683   2.18696
H    -3.30300  -1.58361   1.15564
H     4.05315   1.76568  -2.52002
H     5.77088   0.55871  -1.22297
H     5.03148  -0.98777   0.59818
H     2.61690  -1.18513   1.07885
H     2.52285   3.04092  -3.21602
H     0.61252   3.87402  -4.53560
H    -1.64438   2.86494  -4.16209
H    -1.88170   1.11418  -2.38412
O     0.15819  -1.45386  -0.76405
