46

Ni    0.00000   0.00000   0.00000
P     1.98376   0.10254  -0.84036
P    -2.02296  -0.19390   0.72242
O     1.38162   2.79029   4.02281
N     0.76509   1.50014   2.24891
C     3.29566  -0.62974   0.20784
H     4.22603  -0.68695  -0.35550
H     2.99076  -1.62717   0.51944
H     3.44610  -0.00658   1.08844
C     2.77477   1.68715  -1.31710
H     3.76905   1.50418  -1.72176
H     2.84884   2.33508  -0.44579
H     2.16380   2.19031  -2.06348
C     2.15641  -0.86250  -2.38470
H     1.49720  -0.44592  -3.14502
H     1.86427  -1.89301  -2.19152
H     3.18746  -0.82609  -2.73517
C    -2.17344  -1.01521   2.35314
H    -3.22107  -1.22953   2.56012
H    -1.78038  -0.35968   3.12884
H    -1.60352  -1.94256   2.34055
C    -3.06532  -1.26759  -0.32923
H    -2.58958  -2.24240  -0.41881
H    -3.15413  -0.82618  -1.32071
H    -4.05523  -1.37474   0.11328
C    -3.12368   1.25263   0.96455
H    -3.24097   1.78182   0.02145
H    -2.67556   1.93586   1.68321
H    -4.09849   0.92928   1.32599
C    -0.11162   1.88710   0.06638
C     0.32764   2.42840   1.28527
C     0.31677   3.80056   1.49500
C    -0.13279   4.63835   0.48790
C    -0.56890   4.11818  -0.71614
C    -0.55782   2.74454  -0.92492
C     1.24442   1.70397   3.50320
C     1.59925   0.40131   4.19746
H     0.65724   4.19860   2.43659
H    -0.14114   5.70594   0.65050
H    -0.90010   2.34813  -1.87366
H    -0.91942   4.77587  -1.49881
H     0.69834   0.52704   1.92437
H     0.72331  -0.24036   4.26700
H     2.36769  -0.12717   3.63685
H     1.96765   0.61551   5.19626
O     0.16696  -1.63734   0.11721
