65

W     0.00000   0.00000   0.00000
I     1.83108  -0.12452  -2.19121
C    -1.48860  -1.32492  -0.01754
O    -2.30642  -2.16540   0.24192
C    -1.34786  -0.57282  -1.39800
N    -2.01652  -0.67069  -2.40953
C    -2.97836  -1.48745  -3.08307
C    -2.46286  -2.93088  -3.11849
C    -3.12652  -0.93248  -4.50094
C    -4.30948  -1.40942  -2.32577
C    -0.47106   1.91241  -0.72655
N    -0.29692   2.91081  -1.30056
C     0.08581   4.02816  -2.06786
C    -0.24645   3.72328  -3.53100
C     1.59609   4.19853  -1.87298
C    -0.67962   5.25203  -1.56128
C     1.11166  -1.66915   0.55035
N     1.94781  -2.46080   0.73733
C     3.10715  -3.26057   0.78352
C     4.30837  -2.30955   0.78221
C     3.06501  -4.10263   2.05993
C     3.10889  -4.14326  -0.46800
C    -1.28967   0.24343   1.55845
N    -2.09855   0.32371   2.40854
C    -3.15538  -0.00158   3.29039
C    -2.67695  -1.14746   4.18874
C    -4.35884  -0.44202   2.44975
C    -3.48661   1.24069   4.11971
H    -3.15997  -3.56195  -3.66377
H    -2.35934  -3.31862  -2.10680
H    -1.49256  -2.97124  -3.60997
H    -3.84277  -1.52633  -5.06230
H    -2.16798  -0.95798  -5.01384
H    -3.47304   0.09797  -4.46785
H    -5.05529  -2.02081  -2.82720
H    -4.66434  -0.38124  -2.28683
H    -4.18561  -1.77569  -1.30871
H     0.06901   4.55297  -4.15736
H    -1.31669   3.57285  -3.65936
H     0.27360   2.82415  -3.85517
H     1.94168   5.06327  -2.43216
H     2.12669   3.31811  -2.22956
H     1.83438   4.34082  -0.82081
H    -0.39043   6.12661  -2.13729
H    -0.45223   5.43423  -0.51302
H    -1.75296   5.10451  -1.66564
H     5.23012  -2.88258   0.82796
H     4.26750  -1.63810   1.63754
H     4.31419  -1.70902  -0.12516
H     3.94995  -4.73076   2.11223
H     2.18298  -4.74035   2.06991
H     3.04111  -3.46005   2.93770
H     4.00762  -4.75343  -0.48213
H     3.09254  -3.52587  -1.36405
H     2.23965  -4.79826  -0.47818
H    -3.46205  -1.41970   4.88915
H    -1.79414  -0.84687   4.74921
H    -2.42692  -2.01725   3.58443
H    -5.17738  -0.73484   3.10195
H    -4.08824  -1.28932   1.82277
H    -4.69407   0.37109   1.80863
H    -4.29341   1.01859   4.81296
H    -3.79687   2.05799   3.47205
H    -2.61498   1.56080   4.68625
O     1.14053   0.81640   0.86901
