35

Au    0.00000   0.00000   0.00000
C    -0.19757  -1.97708   0.48083
N    -0.19861  -2.93717  -0.43531
N    -0.48667  -2.32225   1.73520
H    -0.82796  -3.25319   1.95439
C     0.11316  -2.62792  -1.81911
H     0.67555  -3.46453  -2.24190
H     0.74331  -1.73656  -1.83773
C    -1.14723  -2.36527  -2.63684
H    -0.88010  -2.16414  -3.66999
H    -1.66734  -1.49723  -2.23883
H    -1.82033  -3.21980  -2.61200
C    -0.49371  -4.33944  -0.17084
H    -0.78444  -4.80336  -1.11484
H    -1.35387  -4.42482   0.50249
C     0.71486  -5.07427   0.40737
H     0.46660  -6.11692   0.58805
H     1.03802  -4.62456   1.34320
H     1.54706  -5.03297  -0.29117
C    -0.50455  -1.44301   2.83782
C     0.53244  -0.54334   3.07017
H     1.37800  -0.51387   2.40237
C     0.48526   0.29629   4.15992
H     1.27723   1.00283   4.34686
C    -0.59006   0.25329   5.05112
C    -1.60912  -0.66897   4.83510
H    -2.44880  -0.74164   5.50757
C    -1.55827  -1.50976   3.73712
H    -2.35891  -2.21816   3.57524
O    -0.53568   1.12484   6.08942
C    -1.60995   1.16440   6.99785
H    -1.36146   1.94712   7.71258
H    -1.72361   0.21360   7.52928
H    -2.54981   1.41756   6.49724
O     0.09255   1.59862  -0.39792
