33

Au    0.00000   0.00000   0.00000
C     1.26515  -0.06829   1.59743
N     2.19636  -0.99984   1.74684
H     2.77832  -0.95623   2.58293
N     1.23013   0.81009   2.58962
H     1.89863   0.69059   3.35018
C     2.53690  -2.11939   0.86476
C     1.34666  -3.07059   0.72696
H     0.51379  -2.56985   0.23929
H     1.01958  -3.41487   1.70574
H     1.62980  -3.93241   0.12985
C     3.70134  -2.85498   1.53385
H     4.56177  -2.19697   1.64317
H     4.00121  -3.70471   0.92767
H     3.41110  -3.22565   2.51553
C     2.98284  -1.60265  -0.50442
H     3.80500  -0.89858  -0.39557
H     2.16086  -1.10020  -1.00837
H     3.31256  -2.43231  -1.12283
C     0.35311   1.97022   2.76960
C     0.77409   2.62673   4.08736
H     0.65377   1.93487   4.91934
H     0.15657   3.49867   4.28179
H     1.81249   2.95079   4.04268
C     0.54366   2.96528   1.62327
H     1.58989   3.25103   1.53799
H    -0.04856   3.85708   1.80598
H     0.22652   2.52594   0.68066
C    -1.10717   1.52472   2.86734
H    -1.23027   0.79759   3.66712
H    -1.43006   1.07106   1.93347
H    -1.74173   2.38170   3.07331
O    -1.02486   0.05285  -1.29204
