45

N    -1.62788   2.17839   1.21961
H    -1.91832   2.80321   1.96263
Au    0.00000   0.00000   0.00000
C    -0.59484   1.36957   1.41204
N     0.02044   1.43832   2.58980
C     1.17720   0.60737   2.87147
H     1.87085   1.17967   3.49295
H     1.67057   0.37122   1.92658
C     0.78580  -0.69146   3.56906
H     1.67519  -1.27659   3.78357
H     0.13587  -1.27405   2.92070
H     0.26431  -0.49686   4.50394
C    -0.37923   2.30870   3.68849
H     0.00286   1.87390   4.61379
H    -1.47097   2.32867   3.77588
C     0.17459   3.72416   3.52794
H    -0.14135   4.34599   4.36172
H    -0.16891   4.17940   2.60211
H     1.26140   3.70069   3.50651
C    -2.46980   2.30061   0.02747
C    -3.21877   0.99610  -0.26103
H    -3.80988   0.71382   0.61431
H    -2.50005   0.19709  -0.45422
C    -3.49852   3.40010   0.31613
H    -4.09715   3.12609   1.18999
H    -2.98359   4.34050   0.53389
C    -1.64073   2.71644  -1.19134
H    -1.11590   3.65029  -0.97310
H    -0.89189   1.95072  -1.40256
C    -4.12471   1.18411  -1.47628
H    -4.64360   0.24248  -1.68214
C    -5.14912   2.28012  -1.18642
H    -5.80806   2.41121  -2.04665
H    -5.76781   1.99739  -0.33140
C    -4.41595   3.58752  -0.89316
H    -5.14391   4.37567  -0.66972
C    -3.58317   3.98800  -2.10921
H    -3.07355   4.93555  -1.91878
H    -4.23498   4.12714  -2.97359
C    -2.55891   2.89187  -2.39920
H    -1.95478   3.17538  -3.26694
C    -3.27639   1.57406  -2.68523
H    -2.54380   0.79151  -2.88993
H    -3.91213   1.68071  -3.56635
O     0.42790  -1.09765  -1.15523
