38

Au    0.00000   0.00000   0.00000
C    -0.66622   0.40707   1.88521
N    -0.36438   1.60573   2.36452
H    -0.69596   1.93929   3.26499
N    -1.38067  -0.42602   2.62703
C    -1.96756  -0.16372   3.93099
H    -1.53170   0.72235   4.39470
H    -1.74322  -1.01768   4.57976
C    -3.48320  -0.01049   3.79206
H    -3.69939   0.83718   3.13771
H    -3.92343   0.19150   4.76966
C    -4.07325  -1.28458   3.19263
H    -5.14391  -1.15938   3.02670
H    -3.93691  -2.11072   3.89449
C    -3.37097  -1.61355   1.87732
H    -3.72607  -2.56562   1.48361
H    -3.58564  -0.83940   1.13780
C    -1.85887  -1.68329   2.09056
H    -1.61740  -2.48355   2.79845
H    -1.34627  -1.87666   1.14620
C     0.42201   2.54018   1.62712
C     1.81307   2.47105   1.69153
C    -0.22888   3.51955   0.87700
C     0.54066   4.43414   0.17399
H     0.05236   5.19233  -0.41976
C     1.92148   4.37427   0.22069
H     2.50951   5.08716  -0.33708
C     2.48507   1.39847   2.49181
H     2.36389   0.43685   1.99194
H     2.04791   1.31598   3.48622
H     3.54718   1.60391   2.59038
C     2.55150   3.40125   0.97405
H     3.62976   3.35609   1.00401
C    -1.72593   3.55031   0.82159
H    -2.10231   2.61032   0.41781
H    -2.06836   4.36184   0.18612
H    -2.15100   3.68588   1.81675
O     0.54413  -0.29742  -1.52904
