19

Au    0.00000   0.00000   0.00000
C     0.64722  -1.03467  -1.41265
N     1.04378  -1.67974  -2.29678
C     1.50211  -2.43899  -3.31894
C     2.26738  -1.85516  -4.33235
H     2.48980  -0.80016  -4.29300
C     2.72620  -2.63413  -5.36620
H     3.31812  -2.20970  -6.16092
C     2.43627  -4.00440  -5.41675
C     1.67194  -4.57730  -4.39929
H     1.43255  -5.62828  -4.40983
C     1.20811  -3.79965  -3.35748
H     0.61660  -4.23934  -2.56899
O     2.93679  -4.66982  -6.47717
C     2.68697  -6.05235  -6.60279
H     3.18476  -6.35665  -7.52160
H     1.61602  -6.25963  -6.68596
H     3.10546  -6.61285  -5.76154
O    -0.57657   0.91206   1.24828
