70

Pt    0.00000   0.00000   0.00000
P     1.12147   0.87086   1.84867
P     0.17974   2.08101  -0.86522
N    -5.11170  -2.88146  -2.16799
N    -3.76631   0.47492  -4.31171
N    -1.05038  -1.34720  -5.57890
N    -2.37595  -4.78153  -3.53848
C    -0.97927  -0.65323  -1.70562
C    -2.47690  -0.75249  -1.42370
C    -3.03980  -1.42831  -2.71242
C    -1.83553  -2.26252  -3.28574
C    -0.67112  -2.03539  -2.27276
C    -4.19447  -2.25102  -2.42324
C    -3.44858  -0.38765  -3.63314
C    -1.42550  -1.75576  -4.58016
C    -2.15368  -3.66673  -3.43051
C     1.35253   2.65090   1.53218
C     0.95404   3.16462   0.37110
C     2.84922   0.31411   1.78551
C     3.79482   0.69846   2.73008
C     5.09849   0.25415   2.60929
C     5.46083  -0.56714   1.55238
C     4.51912  -0.95189   0.61170
C     3.21401  -0.51037   0.72736
C     0.72499   0.80689   3.61269
C     0.01191   1.83046   4.22901
C    -0.34332   1.71643   5.56063
C    -0.00781   0.57698   6.27401
C     0.67644  -0.45701   5.65369
C     1.03819  -0.34852   4.32457
C    -1.36306   2.92412  -1.29319
C    -2.12916   3.48959  -0.27679
C    -3.37485   4.01577  -0.56328
C    -3.86986   3.96144  -1.85722
C    -3.11737   3.38530  -2.86843
C    -1.86666   2.86522  -2.59024
C     1.25039   2.32093  -2.30717
C     1.34670   3.54850  -2.95422
C     2.18539   3.67944  -4.04543
C     2.92526   2.59404  -4.48982
C     2.83284   1.37221  -3.84283
C     1.99749   1.23590  -2.74939
H    -0.85161   0.06768  -2.53639
H    -2.67328  -1.40476  -0.56793
H    -2.95328   0.21608  -1.25271
H     0.29550  -2.09475  -2.77573
H    -0.71499  -2.80207  -1.49598
H     1.84416   3.24751   2.29312
H     1.09802   4.20791   0.10854
H     3.50546   1.32893   3.55988
H     5.83545   0.54564   3.34317
H     6.48019  -0.91300   1.46710
H     4.80165  -1.59966  -0.20453
H     2.44930  -0.82170   0.01442
H    -0.26343   2.71118   3.66344
H    -0.88889   2.51498   6.04191
H    -0.28957   0.49034   7.31274
H     0.92261  -1.35106   6.20688
H     1.55937  -1.15469   3.82616
H    -1.74197   3.50760   0.73392
H    -3.96573   4.45955   0.22443
H    -4.84770   4.36280  -2.07622
H    -3.50841   3.32495  -3.87197
H    -1.28023   2.41348  -3.37861
H     0.75567   4.38719  -2.61171
H     2.25931   4.62844  -4.55548
H     3.57261   2.70152  -5.34705
H     3.40676   0.52840  -4.19484
H     1.89991   0.28846  -2.22880
O    -0.16811  -1.47704   0.71595
