29

Au    0.00000   0.00000   0.00000
Cl   -1.87652   0.84919   0.82851
N     1.75518  -0.77651  -0.73861
C     1.97586  -0.86836  -2.04710
H     1.23112  -0.42861  -2.69288
Cl   -0.63539  -2.10246   0.62490
C     3.09771  -1.48992  -2.55429
H     3.24354  -1.54819  -3.62045
C     4.01428  -2.03881  -1.66559
H     4.89647  -2.54279  -2.03021
C     3.78281  -1.92375  -0.30939
H     4.46811  -2.32570   0.41871
C     2.63712  -1.27002   0.13687
C     2.32758  -1.10715   1.56166
C     2.13216   0.16230   2.10013
H     2.32750   1.03162   1.48881
C     1.74262   0.30966   3.41885
H     1.59883   1.29560   3.83088
C     1.52067  -0.81653   4.19228
H     1.18976  -0.71110   5.21427
C     1.71791  -2.08413   3.67411
H     1.53365  -2.94367   4.29807
C     2.13956  -2.25023   2.35889
O     2.36938  -3.44309   1.76144
C     1.88484  -4.61190   2.38828
H     2.05858  -5.41648   1.67598
H     0.81405  -4.53043   2.58990
H     2.42590  -4.82622   3.31514
O     0.49527   1.48198  -0.53005
