55

Re    0.00000   0.00000   0.00000
P     0.18846   0.46984  -2.38927
Cl    0.13145   0.89388   2.07577
N     1.98741  -0.75274   0.34277
N     2.42929  -1.94907   0.73761
H     1.77053  -2.67168   0.98824
O    -0.54547  -1.57146   0.04665
O     1.42118   1.59803  -0.48715
O     3.55098   2.18754  -0.76799
C    -0.82604  -0.63232  -3.42407
C    -1.77820  -1.47745  -2.87060
H    -1.93412  -1.47872  -1.79895
C    -2.51561  -2.31344  -3.69213
H    -3.25658  -2.96956  -3.26202
C    -2.30211  -2.30986  -5.06025
H    -2.87698  -2.96365  -5.69866
C    -1.34812  -1.46901  -5.61356
H    -1.18075  -1.46835  -6.68018
C    -0.60986  -0.63159  -4.80012
H     0.13575   0.02839  -5.22315
C    -0.24884   2.13523  -2.94707
C     0.58192   3.23438  -2.73241
H     1.51642   3.12653  -2.20355
C     0.18728   4.48779  -3.16623
H     0.83495   5.33535  -2.99751
C    -1.03224   4.66020  -3.79937
H    -1.33510   5.64225  -4.13140
C    -1.87112   3.57384  -3.98954
H    -2.83232   3.70667  -4.46340
C    -1.48733   2.31676  -3.56307
H    -2.15292   1.47581  -3.69334
C     1.85884   0.04634  -2.96284
C     2.27761  -1.24681  -2.64922
H     1.57680  -1.91784  -2.16446
C     3.56415  -1.65249  -2.94186
H     3.89042  -2.64967  -2.68509
C     4.44170  -0.76868  -3.55239
H     5.45558  -1.07529  -3.76073
C     4.01814   0.50274  -3.89680
H     4.69811   1.18635  -4.38177
C     2.72772   0.91506  -3.60805
H     2.40607   1.90858  -3.88058
C     3.01571   0.04036   0.11395
C     4.21732  -0.67476   0.35029
C     5.57741  -0.37849   0.24902
H     5.89041   0.60237  -0.06900
C     6.46934  -1.37577   0.56270
H     7.52965  -1.18598   0.49501
C     6.03845  -2.64507   0.97528
H     6.77914  -3.39303   1.21512
C     4.70315  -2.96285   1.08270
H     4.37593  -3.94008   1.40086
C     3.79007  -1.96265   0.76223
C     2.69391   1.40616  -0.41136
O    -1.38792   0.85403  -0.25848
