70

Cu    0.00000   0.00000   0.00000
P    -0.78081   1.78605   1.05358
P    -1.06834   4.78534   1.19538
P    -0.90484   3.12646   3.74998
P    -3.40079   2.95832   2.00499
N    -0.39476   3.35095   0.49771
N    -0.56708   4.52295   2.81256
N    -0.32856   1.89464   2.68615
N    -2.47126   1.69965   1.22139
N    -2.75034   4.40826   1.35747
N    -2.59613   2.95984   3.51398
C    -0.10089   3.47693  -0.93488
H     0.75641   4.13742  -1.07291
H    -0.94462   3.87908  -1.50112
H     0.13849   2.49209  -1.34349
C    -0.58088   5.75632   3.60176
H    -0.05835   6.53952   3.05081
H    -0.06372   5.57643   4.54515
H    -1.59461   6.10138   3.82270
C     1.08617   1.58105   2.88999
H     1.31386   0.62227   2.41202
H     1.27072   1.49793   3.96192
H     1.74927   2.34712   2.47779
C    -3.14952   1.11022   0.06413
H    -3.35827   1.83618  -0.72640
H    -4.09336   0.67322   0.39270
H    -2.51886   0.32547  -0.36299
C    -3.62219   5.07388   0.38874
H    -3.30240   6.11125   0.28153
H    -4.64820   5.05434   0.75878
H    -3.60507   4.60651  -0.60029
C    -3.22088   2.04925   4.47435
H    -3.04867   0.99782   4.22732
H    -4.29641   2.23183   4.49248
H    -2.80803   2.24512   5.46478
P     0.78083  -1.78601   1.05363
P     1.06836  -4.78531   1.19539
P     0.90478  -3.12646   3.75001
P     3.40079  -2.95829   2.00510
N     0.39481  -3.35091   0.49773
N     0.56707  -4.52295   2.81257
N     0.32854  -1.89463   2.68618
N     2.47127  -1.69960   1.22149
N     2.75036  -4.40822   1.35753
N     2.59608  -2.95984   3.51406
C     0.10073  -3.47690  -0.93481
H    -0.75672  -4.13721  -1.07270
H     0.94428  -3.87927  -1.50115
H    -0.13851  -2.49204  -1.34346
C     0.58088  -5.75633   3.60176
H     0.05838  -6.53954   3.05080
H     0.06370  -5.57646   4.54514
H     1.59462  -6.10136   3.82272
C    -1.08620  -1.58103   2.88998
H    -1.31384  -0.62218   2.41210
H    -1.27080  -1.49802   3.96191
H    -1.74930  -2.34703   2.47765
C     3.14953  -1.11021   0.06421
H     3.35814  -1.83615  -0.72637
H     4.09344  -0.67334   0.39274
H     2.51893  -0.32536  -0.36282
C     3.62217  -5.07368   0.38865
H     3.30267  -6.11116   0.28165
H     4.64826  -5.05377   0.75842
H     3.60464  -4.60643  -0.60044
C     3.22080  -2.04931   4.47450
H     3.04852  -0.99786   4.22758
H     4.29635  -2.23181   4.49258
H     2.80800  -2.24530   5.46492
O    -0.00030  -0.00005  -1.65000
