55

Mo    0.00000   0.00000   0.00000
P    -1.66908  -1.66911  -0.41428
C    -2.55213  -2.55216   0.92766
C    -3.07530  -1.14459  -1.46614
H    -3.26567  -3.26570   0.51363
H    -1.82736  -3.07240   1.55123
H    -2.65533  -0.72538  -2.38152
H    -3.67459  -0.38497  -0.96924
H    -3.70607  -2.00105  -1.70902
P     1.66924  -1.66898   0.41420
P     1.66909   1.66905  -0.41421
P    -1.66896   1.66921   0.41420
Cl    0.00012   0.00009   2.45913
C    -1.14456  -3.07533  -1.46614
H    -3.07237  -1.82738   1.55123
C     2.55233  -2.55213  -0.92768
C     1.14479  -3.07524   1.46606
C     3.07548  -1.14461   1.46611
C     2.55229   2.55227   0.92760
C     3.07538   1.14478  -1.46607
C     1.14481   3.07535  -1.46607
C    -2.55211   2.55230  -0.92768
C    -1.14458   3.07546   1.46611
C    -3.07522   1.14477   1.46606
H    -0.72536  -2.65536  -2.38152
H    -0.38494  -3.67462  -0.96924
H    -2.00103  -3.70610  -1.70902
H     3.26581  -3.26565  -0.51359
H     3.07262  -1.82743  -1.55122
H     1.82758  -3.07240  -1.55122
H     0.72557  -2.65531   2.38146
H     0.38518  -3.67457   0.96916
H     2.00129  -3.70601   1.70894
H     2.65553  -0.72539   2.38149
H     3.67483  -0.38500   0.96922
H     3.70623  -2.00113   1.70899
H     3.26573   3.26571   0.51344
H     1.82764   3.07261   1.55112
H     3.07263   1.82762   1.55112
H     2.65548   0.72554  -2.38148
H     3.67478   0.38520  -0.96920
H     3.70613   2.00135  -1.70894
H     0.72557   2.65545  -2.38148
H     0.38523   3.67475  -0.96920
H     2.00138   3.70610  -1.70894
H    -3.26562   3.26579  -0.51360
H    -3.07237   1.82755  -1.55122
H    -1.82740   3.07260  -1.55122
H    -0.72536   2.65550   2.38149
H    -0.38498   3.67480   0.96922
H    -2.00110   3.70620   1.70899
H    -2.65528   0.72554   2.38145
H    -3.67454   0.38516   0.96916
H    -3.70599   2.00126   1.70894
O     0.00017   0.00016  -1.65000
