38

Cd    0.00000   0.00000   0.00000
I    -2.45159   1.04028   0.36817
N    -0.65198  -2.44084  -0.44013
C    -0.61921  -3.49571   0.27100
H    -1.19246  -4.38134  -0.03478
O    -0.53791  -0.48024  -2.27704
N    -1.43332  -2.41689  -1.53936
H    -2.08861  -3.18188  -1.69925
N    -0.11728  -1.39611   2.21519
C    -2.31290  -1.40146  -3.54597
C     0.90462  -0.63263   4.24574
H     1.03528   0.18333   4.93824
C     1.57401  -5.15806   2.78275
H     1.98814  -6.14559   2.91655
C    -3.73661  -2.51212  -5.13516
H    -4.13647  -3.42503  -5.55602
C    -2.68710  -0.17126  -4.09486
H    -2.26940   0.73113  -3.67581
C    -4.12219  -1.28138  -5.66385
C     0.07539  -0.47171   3.12539
H    -0.45841   0.46349   2.98327
C     0.72701  -4.91183   1.69964
H     0.50283  -5.71839   1.01609
C    -1.35284  -1.37696  -2.42976
C    -3.58629  -0.10725  -5.13282
H    -3.89122   0.83689  -5.55341
C     1.53377  -1.83316   4.42165
H     2.18801  -2.00986   5.26299
C     0.47206  -2.60059   2.37641
C     1.87035  -4.15381   3.66273
H     2.52434  -4.32715   4.50430
C    -2.84519  -2.57191  -4.08379
H    -2.54164  -3.54297  -3.71913
C     0.20271  -3.65638   1.45519
C     1.30789  -2.87311   3.49584
O    -4.99538  -1.17930  -6.68554
H    -5.29905  -2.05162  -6.96708
O     1.63953   0.07287   0.17068
