20

Pt    0.00000   0.00000   0.00000
N    -1.65875  -1.24440   0.00008
O     2.38244   1.80372  -0.00019
C     1.45037   1.14840   0.00031
C    -2.96537  -0.54331   0.00004
C    -2.74245   0.94845  -0.00001
C    -3.82743   1.81449  -0.00001
C    -3.62638   3.18129   0.00003
C    -2.33529   3.68007   0.00007
C    -1.25239   2.81683   0.00003
C    -1.42913   1.43433  -0.00003
H    -1.58169  -1.85932  -0.81572
H    -3.54695  -0.83107  -0.88299
H    -4.83030   1.41010  -0.00003
H    -4.47181   3.85277   0.00005
H    -2.16730   4.74670   0.00013
H    -0.25700   3.23840   0.00007
H    -1.58172  -1.85929   0.81591
H    -3.54698  -0.83102   0.88307
O     0.98636  -1.32272  -0.00002
