59

Zr    0.00000   0.00000   0.00000
C     0.35639   1.76985  -1.28382
C    -0.87909   2.34844  -1.31278
C    -1.66808   2.33520  -0.06305
C    -1.03479   2.47828   1.13334
H     0.02432   2.75811   1.08738
C     1.54073   2.95799  -3.13642
H     1.07448   3.88329  -2.82769
C     2.43202   2.94717  -4.19110
H     2.65667   3.86732  -4.71148
C     3.03000   1.76304  -4.59060
H     3.72005   1.75567  -5.42116
C     2.74192   0.58621  -3.91440
H     3.20799  -0.33858  -4.22360
C     1.87135   0.59086  -2.84242
H     1.65490  -0.33888  -2.30772
C     1.23842   1.77955  -2.44390
C    -1.59060   2.11759  -3.68059
H    -1.16042   1.12343  -3.67263
C    -2.20136   2.60849  -4.81856
H    -2.23960   2.00234  -5.71182
C    -2.76798   3.87281  -4.81447
H    -3.24353   4.25594  -5.70542
C    -2.72639   4.64356  -3.66480
H    -3.16846   5.62958  -3.65859
C    -2.11881   4.15502  -2.52301
H    -2.07649   4.75968  -1.62783
C    -1.53910   2.88999  -2.52233
C    -3.49544   0.85992  -0.79256
H    -2.73406   0.10293  -0.99277
C    -4.82902   0.60115  -1.05385
H    -5.12009  -0.35811  -1.45512
C    -5.78668   1.57304  -0.81094
H    -6.82596   1.37209  -1.02354
C    -5.40959   2.80333  -0.29868
H    -6.15466   3.56260  -0.11282
C    -4.07933   3.06538  -0.02412
H    -3.78326   4.02058   0.38347
C    -3.11398   2.09349  -0.26507
C    -2.86043   2.01072   2.81636
H    -3.51343   1.62579   2.04978
C    -3.29863   2.03078   4.12643
H    -4.28980   1.67065   4.36040
C    -2.47838   2.50114   5.13886
H    -2.82666   2.51349   6.16063
C    -1.20396   2.94799   4.82937
H    -0.55318   3.31035   5.61160
C    -0.76081   2.92663   3.52221
H     0.23762   3.27197   3.29112
C    -1.57978   2.46503   2.48397
C    -1.12043  -0.70492   1.79350
H    -0.82570  -0.26620   2.75797
H    -0.95468  -1.79455   1.87172
H    -2.20639  -0.55552   1.68486
C     2.05671  -0.52844   0.66129
H     2.17194  -0.48832   1.75525
H     2.82883   0.12526   0.22520
H     2.28582  -1.56105   0.34867
O    -0.53483  -1.10749  -1.09997
