32

Pt    0.00000   0.00000   0.00000
N    -1.75688  -0.46471   0.83076
C    -2.79247   0.24378   0.31908
Cl    1.89645   0.53657  -1.05879
C    -4.09575   0.04675   0.78321
H    -4.90124   0.64031   0.38089
N    -3.36384   3.39475  -1.10485
N    -1.13785   1.31051  -0.93791
C    -4.33130  -0.89996   1.75917
H    -5.33113  -1.06827   2.12814
C    -3.25661  -1.62830   2.26111
H    -3.40050  -2.37675   3.02285
C    -1.98916  -1.37437   1.77480
H    -1.11922  -1.90678   2.13814
C    -3.45126   2.08177  -1.28924
C    -4.47866   1.49797  -2.03127
H    -4.50405   0.42915  -2.17935
C    -5.44066   2.32302  -2.58928
H    -6.24580   1.90385  -3.17475
C    -5.35189   3.69132  -2.38438
H    -6.08356   4.36619  -2.79880
C    -4.28802   4.17253  -1.63530
H    -4.16341   5.23066  -1.44868
C    -2.40808   1.23054  -0.66923
C    -0.63133   2.32571  -1.82538
H    -1.40762   2.66472  -2.51853
H     0.20612   1.89347  -2.37891
C    -0.11672   3.50399  -0.99763
H     0.34279   4.23590  -1.65485
H     0.63080   3.14874  -0.29059
H    -0.94088   3.96601  -0.45982
O     0.85600  -1.12463   0.85146
