18

Pt    0.00000   0.00000   0.00000
I     1.75222  -0.00001  -1.87567
C     1.29374  -0.69273   1.59027
H     2.10155  -1.34243   1.27986
C    -1.06200  -0.69276   1.75333
H    -1.90499  -1.34239   1.55769
C     0.17591  -1.12185   2.53891
H     0.20017  -2.15023   2.88847
C     0.24846  -0.00001   3.58839
H     1.18171  -0.00001   4.15163
H    -0.59858  -0.00001   4.27448
C     1.29374   0.69271   1.59027
H     2.10156   1.34241   1.27986
C    -1.06200   0.69274   1.75333
H    -1.90499   1.34238   1.55769
C     0.17591   1.12184   2.53891
H     0.20017   2.15021   2.88847
O    -1.28178  -0.00001  -1.03901
