29

Cd    0.00000   0.00000   0.00000
Br   -1.34190  -0.09720  -2.10834
O     1.87827   1.46451   1.14507
O     2.01504  -1.32330  -0.72169
N     1.53196   3.69725   1.29154
N     3.20167  -2.57262   0.74450
N     0.35641   2.37118  -0.24330
N     1.09082  -1.70799   1.29078
N    -1.23583   3.26513  -1.59769
N     0.19941  -1.99461   3.36456
C     1.27468   2.44325   0.73414
C     2.07602  -1.82915   0.38574
C    -0.33056   3.43317  -0.64249
C     1.19839  -2.20218   2.51504
C    -0.08676   4.72197  -0.05890
C     2.35711  -2.96061   2.89548
C     0.85244   4.80094   0.90965
C     3.33250  -3.11817   1.97309
H     2.20908   3.72746   2.04084
H     3.93044  -2.64947   0.04864
H    -1.41178   2.32410  -1.95154
H    -1.82482   4.02328  -1.89330
H    -0.64635   5.58246  -0.37994
H     2.43655  -3.37783   3.88379
H     1.09915   5.72486   1.41188
H     4.24032  -3.66983   2.16973
H    -0.54347  -1.34778   3.09657
H     0.26617  -2.29388   4.32125
O    -0.97613   0.34842   1.28385
