38

Br    0.10616   2.34607   0.31031
Zn    0.00000   0.00000   0.00000
N    -1.97711  -0.79120   0.58534
N    -1.03215   0.00218  -2.00032
C    -2.46275  -0.65570   1.97449
C    -2.93245   0.78869   2.16218
C    -3.60460  -1.61270   2.33393
C    -1.26877  -0.94895   2.88562
C    -2.88478  -0.67124  -0.53391
C    -2.26035  -1.96800  -0.21502
C    -2.45560   0.21775  -1.69188
C    -3.34318  -0.00864  -2.89609
C    -3.47715  -1.28177  -3.43853
C    -4.26725  -1.48518  -4.55553
C    -4.92982  -0.41946  -5.14121
C    -4.80051   0.85052  -4.60590
C    -4.00961   1.05531  -3.48868
H    -0.92834  -0.86064  -2.53420
H    -0.71407   0.75463  -2.60904
H    -2.15748   1.49392   1.87533
H    -3.17729   0.96472   3.20569
H    -3.81814   0.99071   1.56360
H    -3.26151  -2.64434   2.36916
H    -4.43788  -1.53448   1.63848
H    -3.97554  -1.35449   3.32223
H    -1.57254  -0.91605   3.92826
H    -0.86171  -1.93632   2.67451
H    -0.48235  -0.20585   2.74255
H    -3.94206  -0.56057  -0.31006
H    -1.43087  -2.35095  -0.79322
H    -2.88126  -2.74450   0.20850
H    -2.55539   1.25884  -1.35808
H    -2.96904  -2.12022  -2.98307
H    -4.36526  -2.47787  -4.96837
H    -5.54575  -0.57923  -6.01305
H    -5.31435   1.68491  -5.05869
H    -3.90853   2.04763  -3.07296
O     0.94371  -1.35194  -0.06461
