51

Ru    0.00000   0.00000   0.00000
Cl   -0.32456  -2.12754  -0.89214
N    -0.62990   0.86511  -1.64386
H    -0.81841   0.43060  -2.54849
N     0.04669   1.87248   0.54482
N     0.72309  -0.81771   1.62678
H     0.25349  -0.97542   2.51976
N     1.87708  -0.25645  -0.52945
C    -0.90626   2.15055  -1.55402
C    -1.46621   2.97827  -2.55689
H    -1.75956   2.53488  -3.49715
C    -1.64623   4.30855  -2.30883
H    -2.08706   4.94324  -3.06254
C    -1.27347   4.87795  -1.07273
H    -1.44290   5.93168  -0.91180
C    -0.71135   4.12155  -0.08316
H    -0.43382   4.55472   0.86620
C    -0.51095   2.73862  -0.29557
C     0.59084   2.28259   1.76511
C    -0.01909   1.88131   2.95326
H    -0.93262   1.30653   2.89780
C     0.53836   2.24015   4.16540
H     0.06026   1.93405   5.08382
C     1.70212   2.99233   4.20701
H     2.13679   3.26578   5.15657
C     2.30557   3.39597   3.02779
H     3.21086   3.98408   3.05555
C     1.75275   3.05141   1.80815
H     2.22283   3.35904   0.88450
C     1.91416  -1.36883   1.50790
C     2.58230  -2.15849   2.47577
H     2.07580  -2.38777   3.40198
C     3.83611  -2.62788   2.21371
H     4.34597  -3.24393   2.93876
C     4.49225  -2.31310   1.00452
H     5.49090  -2.68875   0.84071
C     3.89234  -1.54268   0.04910
H     4.40678  -1.28941  -0.86546
C     2.57914  -1.06267   0.26247
C     2.29963   0.09111  -1.80753
C     2.60002  -0.88696  -2.75795
H     2.51970  -1.92783  -2.48282
C     2.92800  -0.51402  -4.04737
H     3.14447  -1.27527  -4.78205
C     2.97445   0.82481  -4.40174
H     3.23339   1.10908  -5.41040
C     2.67842   1.79875  -3.46073
H     2.70902   2.84329  -3.73331
C     2.33787   1.43854  -2.17180
H     2.10634   2.19183  -1.43017
O    -1.54682  -0.07072   0.56996
