20

Zn    0.00000   0.00000   0.00000
Cl    0.28057  -1.99831  -0.86668
O    -2.64926   1.47303  -3.17239
O    -0.78607   0.92509  -2.08344
N    -2.20755   0.00000  -0.00000
C    -1.98875   0.97445  -2.13812
C    -2.86978   0.47609  -1.04161
C    -4.26121   0.49858  -1.08888
C    -4.96134   0.00005   0.00002
H    -2.02959   1.78500  -3.85433
H    -4.76432   0.89554  -1.95550
H    -6.04052   0.00006   0.00002
O    -2.64927  -1.47306   3.17237
O    -0.78608  -0.92519   2.08339
C    -1.98875  -0.97449   2.13810
C    -2.86978  -0.47607   1.04161
C    -4.26121  -0.49852   1.08891
H    -2.02960  -1.78507   3.85429
H    -4.76432  -0.89547   1.95553
O     0.21067   1.50137   0.65116
