24

Zn    0.00000   0.00000   0.00000
Br    2.05433  -0.00000  -1.17089
N     0.42191  -1.54742   1.52431
C    -0.10354  -1.27675   2.87136
C     0.45488  -0.00000   3.52668
C     1.98670  -0.00000   3.51887
C    -0.03392  -0.00000   4.98135
H     0.01209  -2.42658   1.21088
H     1.42523  -1.71609   1.58686
H    -1.18948  -1.18367   2.78801
H     0.11397  -2.12332   3.53585
H     2.39626  -0.00000   2.51127
H     2.36167   0.87943   4.03787
H    -1.12019  -0.00000   5.02038
H     0.32901  -0.87973   5.50648
N     0.42191   1.54742   1.52431
C    -0.10354   1.27675   2.87136
H     2.36167  -0.87943   4.03787
H     0.32901   0.87973   5.50648
H     0.01209   2.42658   1.21088
H     1.42523   1.71609   1.58686
H    -1.18948   1.18367   2.78801
H     0.11397   2.12332   3.53585
O    -1.64996   0.00000   0.01115
