65

Au    0.00000   0.00000   0.00000
C    -0.07574  -1.92740   0.62981
N    -1.17400  -2.62200   0.41160
H    -1.21803  -3.61114   0.64233
N     0.95518  -2.57322   1.15875
N     0.87989  -3.93514   1.49826
H     1.64388  -4.50422   1.15180
O    -0.46885  -3.60544   3.29431
C     0.30226  -4.30937   2.69623
O     0.68407  -5.54971   2.98910
C     0.12260  -6.24424   4.14008
C    -1.39089  -6.37660   3.98519
H    -1.86391  -5.39881   4.01821
H    -1.78632  -6.98335   4.79440
H    -1.63129  -6.85546   3.03800
C     0.79272  -7.61666   4.10078
H     1.87183  -7.50828   4.16956
H     0.55505  -8.12310   3.16907
H     0.44395  -8.22142   4.93199
C     0.48421  -5.50101   5.42419
H     1.56345  -5.38578   5.50026
H     0.13056  -6.06490   6.28226
H     0.02206  -4.51758   5.43622
C    -2.37214  -2.03367  -0.08417
C    -3.18811  -1.30500   0.78009
C    -4.35665  -0.75652   0.26701
H    -4.99866  -0.18316   0.91881
C    -4.69939  -0.93136  -1.06021
H    -5.60873  -0.49366  -1.44342
C    -3.87914  -1.66146  -1.90178
H    -4.14712  -1.79091  -2.93975
C    -2.70478  -2.22344  -1.42551
C    -2.80610  -1.09224   2.21136
H    -2.26427  -1.94373   2.61783
H    -3.68980  -0.90876   2.81714
H    -2.15581  -0.21992   2.28725
C    -1.78795  -3.00001  -2.32110
H    -0.79832  -2.54372  -2.33099
H    -2.17188  -3.01838  -3.33709
H    -1.68109  -4.02755  -1.97215
C     2.22533  -1.95295   1.49381
H     2.43822  -2.13750   2.55251
H     2.11628  -0.87852   1.33261
C     3.31867  -2.51150   0.62050
C     3.31446  -2.23516  -0.74249
H     2.54936  -1.58719  -1.14646
C     4.28377  -2.76872  -1.56767
H     4.28158  -2.53000  -2.62056
C     5.28716  -3.58711  -1.05047
C     5.28715  -3.86031   0.31464
H     6.04822  -4.50455   0.72962
C     4.30878  -3.33520   1.13863
H     4.32174  -3.56018   2.19646
C     6.32657  -4.14781  -1.92640
C     5.99633  -4.67656  -3.17181
H     4.96348  -4.68790  -3.48899
C     6.97489  -5.20837  -3.99083
H     6.70452  -5.62218  -4.95135
C     8.29822  -5.21217  -3.58268
H     9.06232  -5.62451  -4.22469
C     8.63786  -4.68340  -2.34863
H     9.66950  -4.67781  -2.02840
C     7.65992  -4.15901  -1.52419
H     7.93149  -3.73153  -0.56985
O     0.06577   1.55271  -0.55431
