30

Pt    0.00000   0.00000   0.00000
I    -1.04268   0.00000  -2.45515
N     1.56036  -1.50589  -0.80468
N     2.83205  -1.18793  -1.06299
C    -1.30325  -1.45640   0.66318
C     3.42817   0.00000  -0.51231
C     3.40757  -2.11247  -1.85754
C     2.45921  -3.07131  -2.11652
C     1.31684  -2.63879  -1.43623
H    -2.10224  -1.63609  -0.05508
H    -0.70716  -2.36470   0.78637
H    -1.74805  -1.19892   1.62414
H     3.28064   0.00000   0.57863
H     4.49609   0.00000  -0.74130
H     4.42830  -2.02695  -2.17057
H     2.56371  -3.95317  -2.71226
H     0.34937  -3.10041  -1.39750
N     1.56036   1.50589  -0.80468
C    -1.30325   1.45640   0.66318
N     2.83205   1.18792  -1.06299
C     1.31684   2.63879  -1.43623
H    -2.10224   1.63609  -0.05508
H    -0.70716   2.36470   0.78637
H    -1.74805   1.19892   1.62414
C     3.40757   2.11246  -1.85755
C     2.45921   3.07131  -2.11652
H     0.34937   3.10041  -1.39749
H     4.42829   2.02694  -2.17058
H     2.56372   3.95317  -2.71226
O     0.71994   0.00000   1.48465
