58

Ni    0.00000   0.00000   0.00000
Cl   -1.13461   0.84733   1.58868
S     0.09099  -2.28512   1.42702
S    -0.55976   2.02277  -1.66114
N    -1.58084  -0.79584  -0.75084
C    -2.20501  -1.79084  -0.11368
C    -3.34500  -2.38490  -0.64350
H    -3.82896  -3.18400  -0.10415
C    -3.84857  -1.93651  -1.84938
H    -4.73320  -2.38158  -2.27820
C    -3.19229  -0.90581  -2.49382
H    -3.54720  -0.52985  -3.44056
C    -2.05263  -0.35273  -1.91980
C    -1.71561  -2.24609   1.22568
H    -2.12748  -3.21993   1.48525
H    -2.02821  -1.50923   1.97288
C    -1.31914   0.71375  -2.67314
H    -1.95783   1.16776  -3.42905
H    -0.45559   0.25467  -3.16499
C     0.60380  -3.88860   0.62539
C    -0.04405  -4.05252  -0.73904
H     0.16130  -3.18343  -1.36007
H    -1.12073  -4.19228  -0.66202
H     0.37558  -4.92717  -1.23386
C     0.23335  -5.02974   1.56339
H    -0.84467  -5.10266   1.69294
H     0.68760  -4.87969   2.53971
H     0.58874  -5.97392   1.15447
C     2.11676  -3.76771   0.48281
H     2.52922  -4.68709   0.07255
H     2.57718  -3.57820   1.45023
H     2.35793  -2.94721  -0.18885
C    -1.97340   3.17244  -1.27137
C    -1.43268   4.05164  -0.14985
H    -2.16681   4.80666   0.12356
H    -0.51757   4.54870  -0.46474
H    -1.21636   3.44143   0.72385
C    -3.19734   2.40541  -0.80010
H    -2.93802   1.75996   0.03655
H    -3.63024   1.80466  -1.59800
H    -3.95422   3.11081  -0.46033
C    -2.27404   3.99713  -2.51617
H    -3.04344   4.73443  -2.29391
H    -2.63232   3.36978  -3.33003
H    -1.37960   4.51671  -2.85074
O     1.66189   0.91143   0.63567
H     2.38914   0.60097   0.06864
C     3.13104   2.42117   1.79092
H     4.00609   2.15495   1.19978
H     3.45968   2.74581   2.77373
H     2.61771   3.24619   1.30284
C     2.19032   1.22587   1.92033
H     1.32345   1.49987   2.53049
C     2.88967   0.01472   2.52738
H     2.20223  -0.82837   2.56101
H     3.21979   0.23678   3.53787
H     3.75634  -0.26280   1.92815
O     0.94449  -0.65503  -1.18379
