57

Rh    0.00000   0.00000   0.00000
N    -1.78379   0.26445   0.32697
N     0.13230   1.54051   1.24668
N    -0.74780  -1.44189  -1.14309
C    -2.16577   1.26076   1.16911
C    -3.51457   1.46856   1.43869
C    -4.45734   0.64387   0.83813
C    -4.05449  -0.37266  -0.01858
C    -2.69703  -0.54923  -0.26606
C    -1.02020   1.97790   1.67539
C    -1.17737   3.13189   2.61607
C     1.34716   2.12244   1.64818
C     2.00282   1.62551   2.77832
C     3.21967   2.18265   3.13650
C     3.77880   3.20156   2.38578
C     3.13875   3.65664   1.24669
C     1.92063   3.12288   0.85831
C     1.39389   0.48281   3.53113
C     1.22334   3.54935  -0.39645
C    -2.05022  -1.52090  -1.11485
C    -2.84257  -2.52281  -1.89563
C     0.03475  -2.29971  -1.93526
C     0.52104  -3.48930  -1.38582
C     1.32573  -4.30034  -2.16963
C     1.64952  -3.93554  -3.46440
C     1.19394  -2.73624  -3.98263
C     0.38719  -1.90038  -3.22777
C     0.19462  -3.82196   0.03739
C    -0.07972  -0.56962  -3.73195
H    -3.82204   2.25795   2.10576
H    -5.50703   0.79286   1.03880
H    -4.78220  -1.01697  -0.48541
H    -0.20666   3.54787   2.87539
H    -1.68007   2.80905   3.52733
H    -1.78611   3.91008   2.15662
H     3.73745   1.80580   4.00655
H     4.72749   3.62697   2.67710
H     3.59338   4.42901   0.64359
H     0.48986   0.79317   4.05690
H     2.09643   0.07808   4.25442
H     1.11680  -0.30585   2.82230
H     0.94949   2.65809  -0.97379
H     1.86806   4.17986  -1.00243
H     0.30712   4.09721  -0.17190
H    -3.53504  -2.01467  -2.56606
H    -3.42813  -3.14661  -1.22082
H    -2.18278  -3.15783  -2.48212
H     1.70988  -5.22131  -1.75579
H     2.27730  -4.57760  -4.06402
H     1.47516  -2.43772  -4.98205
H     0.79009  -4.66178   0.38466
H    -0.86148  -4.06975   0.15251
H     0.40611  -2.94979   0.66622
H    -1.15655  -0.56965  -3.90688
H     0.42461  -0.30782  -4.65801
H     0.13834   0.19569  -2.97717
O     1.60691  -0.25270  -0.27656
