59

Zr    0.00000   0.00000   0.00000
C     0.58112   1.93168  -1.44944
C     0.47387  -0.13107  -2.42215
C     2.88663   0.84192  -1.96466
C     1.36915   0.83822  -1.89440
C    -0.77990   1.64453  -1.71246
C     3.31030   1.98670  -2.93478
C     3.40973  -0.52086  -2.42713
C    -0.84270   0.37597  -2.32558
C     3.43505   1.11784  -0.55248
C     4.82352   2.11743  -3.10236
C     2.66392   1.84146  -4.31308
H     0.95726   2.89086  -1.11696
H     4.49589  -0.53466  -2.40789
H     4.51379   0.98501  -0.53027
H     0.74606  -1.05631  -2.91493
H     2.99532   0.41078   0.15795
H     3.07986  -0.74897  -3.43638
H     3.05295  -1.29917  -1.75623
H     5.04222   2.97053  -3.74140
H    -1.60130   2.34346  -1.62244
H     2.94388   2.92249  -2.49695
H     1.58615   1.72926  -4.22944
H     2.87094   2.72632  -4.91102
H     3.21295   2.13752  -0.23983
H     5.24252   1.23271  -3.57331
H     3.06428   0.98036  -4.84143
H     5.32114   2.27790  -2.15027
H    -1.72975  -0.09075  -2.73700
Cl    1.56935  -1.73348   0.25307
C    -0.58102   1.93164   1.44954
C    -1.36910   0.83821   1.89446
C    -0.47387  -0.13114   2.42217
C    -2.88658   0.84193   1.96474
C    -3.31022   1.98673   2.93485
C    -4.82345   2.11739   3.10254
H    -5.04212   2.97037   3.74179
H    -5.24247   1.23247   3.57328
H    -5.32112   2.27813   2.15051
C    -2.66376   1.84159   4.31311
H    -1.58599   1.72956   4.22943
H    -2.87089   2.72641   4.91106
H    -3.06394   0.98043   4.84152
H    -2.94393   2.92253   2.49695
C    -3.40968  -0.52084   2.42729
H    -4.49582  -0.53470   2.40785
H    -3.07997  -0.74882   3.43662
H    -3.05278  -1.29919   1.75655
C    -3.43508   1.11788   0.55260
H    -4.51385   0.98520   0.53049
H    -2.99554   0.41070  -0.15781
H    -3.21283   2.13748   0.23983
C     0.84274   0.37578   2.32555
C     0.77999   1.64441   1.71257
H    -0.95712   2.89084   1.11710
H     1.72975  -0.09099   2.73703
H     1.60142   2.34333   1.62263
H    -0.74612  -1.05637   2.91492
O    -1.10053  -1.21649  -0.17749
