59

Ti    0.00000   0.00000   0.00000
C    -1.45065   0.76144   1.78579
C    -0.56293  -0.21288   2.31218
C     0.75457   0.28422   2.23163
C     0.70655   1.54488   1.60660
C    -0.65255   1.83950   1.33959
C    -2.96100   0.80007   1.91044
C    -3.50594  -0.55185   2.37810
C    -3.57150   1.11960   0.53611
C    -3.30080   1.94120   2.91983
C    -2.58756   1.76470   4.26122
C    -4.79939   2.10307   3.17129
H    -0.84398  -1.14043   2.79216
H     1.63326  -0.18448   2.65691
H     1.53354   2.23727   1.52365
H    -1.01910   2.79924   1.00189
H    -3.15007  -0.80040   3.37370
H    -3.19095  -1.33117   1.68916
H    -4.59215  -0.53551   2.39294
H    -4.65280   1.01593   0.56448
H    -3.18609   0.41817  -0.20492
H    -3.33463   2.13658   0.22798
H    -2.93710   2.87449   2.47408
H    -2.96808   0.89643   4.79273
H    -1.51529   1.64711   4.12548
H    -2.75904   2.63946   4.88513
H    -5.34576   2.27387   2.24834
H    -5.20919   1.22659   3.66548
H    -4.96436   2.96043   3.82091
Cl   -1.51956  -1.63192  -0.22054
C     1.45061   0.76141  -1.78579
C     0.56287  -0.21290  -2.31217
C    -0.75462   0.28423  -2.23164
H     0.84392  -1.14044  -2.79217
C    -0.70657   1.54490  -1.60662
C     0.65252   1.83949  -1.33961
C     2.96095   0.80004  -1.91048
C     3.50590  -0.55186  -2.37818
H     3.14999  -0.80042  -3.37376
H     3.19096  -1.33119  -1.68923
H     4.59210  -0.53551  -2.39307
C     3.57151   1.11956  -0.53617
H     4.65280   1.01589  -0.56458
H     3.18613   0.41812   0.20487
H     3.33465   2.13654  -0.22802
C     3.30071   1.94117  -2.91988
C     2.58740   1.76470  -4.26123
H     2.96788   0.89643  -4.79277
H     1.51513   1.64711  -4.12544
H     2.75884   2.63946  -4.88514
C     4.79929   2.10304  -3.17141
H     5.34571   2.27382  -2.24848
H     5.20905   1.22658  -3.66565
H     4.96423   2.96042  -3.82102
H     2.93704   2.87446  -2.47410
H    -1.53354   2.23731  -1.52369
H     1.01909   2.79923  -1.00191
H    -1.63331  -0.18444  -2.65693
O     1.11898  -1.20166   0.16247
