34

C     1.77409  -0.82207  -2.58478
C     1.88167   0.55686  -2.86125
H     1.51782   1.26113  -2.13001
C     2.44209   0.98385  -4.03314
H     2.51697   2.04108  -4.23697
C     2.92355   0.06536  -4.98039
H     3.36077   0.42797  -5.89869
C     2.83846  -1.27825  -4.74151
H     3.20436  -1.99558  -5.46205
C     2.26494  -1.75517  -3.54721
C     2.14308  -3.12863  -3.25695
H     2.50511  -3.85655  -3.96901
C     1.56289  -3.51508  -2.08344
H     1.44583  -4.55721  -1.82882
C     1.10136  -2.52812  -1.18414
C     0.43833  -2.92719   0.03738
H     0.22249  -3.98438   0.19690
C    -1.11253  -1.11092   2.61436
C    -1.92157  -1.25531   3.74171
H    -2.18907  -2.23668   4.10175
C    -2.37143  -0.10874   4.36664
H    -3.00509  -0.17909   5.23786
C    -1.99941   1.13018   3.85970
H    -2.33160   2.04325   4.32517
C    -1.19567   1.17016   2.73407
H    -0.87335   2.10250   2.29275
N     1.21042  -1.23383  -1.43172
N     0.07547  -2.01472   0.84650
N    -0.61607  -2.21259   1.94780
H    -0.97229  -3.13806   2.18608
N    -0.76486   0.07527   2.12624
Cl   -2.01590  -0.47330  -0.85969
Zn    0.00000   0.00000   0.00000
O     0.70632   1.48545   0.13050
