41

Rh    0.00000   0.00000   0.00000
N     1.49135   1.27615   2.28586
N     2.73061   1.14228   0.53606
C     1.51605   0.81507   1.01994
C     2.68051   1.88293   2.59368
H     2.87279   2.31668   3.55343
C     3.45831   1.80291   1.48933
H     4.45447   2.15279   1.31226
C     0.35518   1.18362   3.16015
H    -0.48907   0.80370   2.57348
H     0.10012   2.16874   3.55237
H     0.55856   0.50711   3.99353
C     3.12870   0.96012  -0.83658
H     2.47418   0.18788  -1.26472
H     4.16837   0.61870  -0.87084
C     2.95430   2.25653  -1.63055
H     1.91612   2.57953  -1.52499
H     3.59784   3.03346  -1.21092
C     3.27823   2.05974  -3.10774
H     2.62842   1.28193  -3.51350
H     4.31282   1.72289  -3.21750
C     3.07293   3.34808  -3.89400
H     2.04446   3.68592  -3.79550
H     3.28712   3.19263  -4.94875
H     3.72825   4.13284  -3.52205
C    -0.20383  -1.87646   0.91884
H     0.09970  -2.02307   1.94739
C     0.62145  -1.99509  -0.20469
H     1.67239  -2.25388  -0.19375
C    -0.30401  -2.35412  -1.36977
H     0.16523  -2.76465  -2.26080
C    -1.07807  -1.04558  -1.53813
H    -1.17707  -0.51906  -2.47891
C    -1.89005  -0.92952  -0.43237
H    -2.75981  -0.29384  -0.32527
C    -1.62517  -2.16477   0.42983
H    -2.36704  -2.40144   1.18897
C    -1.35444  -3.21744  -0.65531
H    -2.22737  -3.43023  -1.27366
H    -0.94607  -4.14743  -0.25750
O    -0.39709   1.54320  -0.42818
