64

Ti    0.00000   0.00000   0.00000
Si    3.55591  -1.68961   0.64272
Cl    1.01776  -0.18000  -1.93617
O     2.64606  -0.31785   0.73676
N    -1.65426  -0.38047  -0.70505
C     1.37198   1.54865   1.01655
C     0.68104   2.27451   0.01007
C    -0.68888   2.26614   0.35671
H    -1.44924   2.84585  -0.15204
C    -0.85342   1.53411   1.55557
H    -1.75970   1.45162   2.14335
C     0.41660   1.07387   1.96667
C     1.22652   3.07036  -1.14062
H     0.40333   3.56326  -1.65798
H     1.75520   2.44327  -1.85811
H     1.92142   3.83304  -0.78678
C     0.66533   0.34331   3.25617
H     0.86450   1.05230   4.06390
H     1.51774  -0.32953   3.17654
H    -0.21454  -0.24390   3.52437
C     2.81431   1.07056   1.04942
C     3.41503   1.34640   2.42537
C     4.48850   0.62685   2.92648
H     4.90223  -0.18686   2.35909
C     5.04387   0.94488   4.15469
H     5.87275   0.36253   4.52944
C     4.55263   2.00623   4.89227
H     4.98792   2.25534   5.84850
C     3.50349   2.75408   4.38600
H     3.11915   3.59605   4.94333
C     2.94166   2.42927   3.16499
H     2.12458   3.02471   2.78180
C     3.70477   1.77105   0.02485
C     3.98448   1.18479  -1.20244
H     3.55211   0.23034  -1.45307
C     4.79987   1.82349  -2.12071
H     5.00268   1.34910  -3.06921
C     5.34757   3.05968  -1.82927
H     5.98612   3.55727  -2.54402
C     5.06705   3.65544  -0.61173
H     5.48521   4.62225  -0.37193
C     4.25364   3.01821   0.30813
H     4.04956   3.50105   1.25184
C    -2.97296   0.04658  -0.29951
H    -3.66835  -0.00932  -1.14885
H    -2.97065   1.07290   0.06386
H    -3.36464  -0.61113   0.49473
C    -1.77170  -1.63116  -1.42941
H    -2.18676  -2.41479  -0.77330
H    -0.80079  -1.97380  -1.79998
H    -2.44780  -1.51027  -2.28888
C     2.82628  -2.71707  -0.78741
H     1.75392  -2.85987  -0.67199
H     3.28733  -3.69994  -0.80727
H     2.99178  -2.25672  -1.75791
C     5.41405  -1.41087   0.24723
H     5.66915  -1.85785  -0.70836
H     6.04728  -1.88133   0.99340
H     5.68799  -0.36147   0.19168
C     3.36352  -2.66322   2.27935
H     3.72269  -2.12120   3.15010
H     3.91071  -3.59896   2.22875
H     2.31890  -2.90672   2.45146
O     0.01335  -1.43232   0.81901
