45

Ti    0.00000   0.00000   0.00000
Cl    2.07379   0.34400  -0.42070
Cl   -0.71064   1.78094  -1.00947
O     2.19681  -2.97880  -0.22151
C    -0.03082  -2.24551   0.03606
C    -1.21574  -1.82984   0.72044
C    -2.02392  -1.13975  -0.21208
H    -3.02259  -0.76619  -0.01943
C    -1.37282  -1.15177  -1.46611
H    -1.78504  -0.78134  -2.39698
C    -0.13989  -1.83200  -1.33155
C    -1.65537  -2.17516   2.11298
H    -2.64203  -1.75165   2.29633
H    -0.97104  -1.78777   2.86752
H    -1.71394  -3.25872   2.22918
C     0.77717  -2.12307  -2.48401
H     0.79793  -3.19322  -2.69208
H     1.79741  -1.81056  -2.26657
H     0.42278  -1.60070  -3.37299
C     1.06041  -3.12132   0.61713
C     1.36228  -2.78135   2.06961
C     1.92642  -1.62666   2.56833
H     2.23124  -0.82433   1.90582
C     2.11911  -1.53292   3.94246
H     2.55185  -0.63537   4.35723
C     1.76343  -2.57677   4.78284
H     1.91796  -2.47852   5.84720
C     1.22455  -3.75069   4.27700
H     0.96638  -4.56607   4.93566
C     1.03041  -3.85283   2.91022
C     0.51214  -4.94247   2.09233
C    -0.38566  -7.05101   1.43909
H    -0.74972  -8.03502   1.69534
C     0.04730  -6.19834   2.44337
H     0.02129  -6.50805   3.47716
C    -0.35891  -6.65722   0.11072
H    -0.70068  -7.33716  -0.65525
C     0.10045  -5.39556  -0.24771
H     0.11673  -5.08698  -1.28174
C     0.53804  -4.54909   0.74630
C     3.31332  -3.74722   0.15915
H     3.67774  -3.46801   1.15342
H     4.08310  -3.53559  -0.58012
H     3.08318  -4.81890   0.15226
O    -0.11153   0.60618   1.53056
