65

Pd    0.00000   0.00000   0.00000
Cl    2.18829  -0.71155  -0.03103
N    -0.53406  -1.69889   0.72819
N    -1.24837  -1.75320   1.80506
O    -0.49500  -3.48188  -3.26718
N    -1.59712  -2.99516   1.95673
O    -0.87285  -1.61290  -2.08077
N    -1.13563  -3.77461   1.00975
C    -0.45620  -2.95219   0.23160
C    -2.47933  -3.47051   3.00417
C    -1.90257  -4.77846   3.53955
H    -1.80022  -5.50042   2.73394
H    -2.56262  -5.18685   4.29924
H    -0.92352  -4.61096   3.98268
C    -0.40168  -2.84441  -2.25501
C     0.28775  -3.33719  -0.98727
H     0.40754  -4.41821  -1.03404
H     1.26994  -2.84205  -0.95714
C    -2.55466  -2.40138   4.08682
H    -1.57756  -2.23630   4.53338
H    -3.24309  -2.72089   4.86393
H    -2.90631  -1.46189   3.66966
C    -3.84754  -3.69617   2.35656
H    -4.22718  -2.76388   1.94391
H    -4.55243  -4.06141   3.09781
H    -3.76805  -4.42828   1.55627
C    -0.37490  -0.27421  -4.02253
H    -0.81796   0.38605  -4.76246
H     0.23620  -1.01815  -4.52860
H     0.25763   0.30252  -3.34580
C    -1.46455  -0.95330  -3.20828
H    -2.01192  -1.69043  -3.80403
H    -2.15090  -0.22233  -2.77207
N     0.53379   1.69907  -0.72806
N     1.24784   1.75318  -1.80513
O     0.49577   3.48278   3.26695
N     1.59653   2.99510  -1.95715
O     0.87209   1.61315   2.08126
N     1.13531   3.77475  -1.01021
C     0.45611   2.95248  -0.23170
C     2.47855   3.47024  -3.00486
C     1.90140   4.77778  -3.54082
H     1.79881   5.50008  -2.73556
H     2.56136   5.18600  -4.30069
H     0.92242   4.60978  -3.98392
C     0.40188   2.84513   2.25506
C    -0.28752   3.33780   0.98728
H    -0.40686   4.41887   1.03398
H    -1.26987   2.84308   0.95721
C     2.55414   2.40067  -4.08705
H     1.57709   2.23520  -4.53360
H     3.24255   2.72002  -4.86424
H     2.90595   1.46142  -3.66950
C     3.84670   3.69657  -2.35738
H     4.22655   2.76458  -1.94422
H     4.55152   4.06158  -3.09880
H     3.76702   4.42908  -1.55747
C     0.37421   0.27441   4.02290
H     0.81742  -0.38588   4.76273
H    -0.23696   1.01821   4.52904
H    -0.25826  -0.30235   3.34615
C     1.46381   0.95353   3.20868
H     2.01130   1.69055   3.80439
H     2.15007   0.22249   2.77245
O    -1.56869   0.51107   0.02267
