35

Pd    0.00000   0.00000   0.00000
Cl    1.10694   0.61216  -1.90107
N     0.95000  -1.65541   0.02137
N     0.60319  -2.79813  -0.54136
N     1.48358  -3.67695  -0.32354
N     2.45065  -3.11840   0.41078
C     2.11220  -1.82920   0.62608
C     2.84084  -0.78953   1.38037
H     2.23596   0.13643   1.36221
H     3.80818  -0.59292   0.91923
H     2.99355  -1.09746   2.41478
O     4.55314  -2.47537  -0.93229
H     5.29818  -2.26710  -1.51856
C     3.63307  -3.82884   0.78025
H     3.43539  -4.89888   0.67272
H     3.89841  -3.62157   1.82158
C     4.83369  -3.47403  -0.10416
O     5.88911  -4.02999  -0.03599
N    -0.94985   1.65551  -0.02029
N    -0.60313   2.79825   0.54248
N    -1.48359   3.67701   0.32464
N    -2.45063   3.11837  -0.40966
C    -2.11206   1.82921  -0.62497
C    -2.84054   0.78946  -1.37926
H    -2.23541  -0.13634  -1.36112
H    -3.80781   0.59263  -0.91806
H    -2.99335   1.09738  -2.41366
O    -4.55305   2.47497   0.93331
H    -5.29809   2.26654   1.51953
C    -3.63313   3.82866  -0.77913
H    -3.43560   4.89872  -0.67162
H    -3.89846   3.62134  -1.82046
C    -4.83368   3.47377   0.10536
O    -5.88918   4.02954   0.03716
O    -0.79923  -0.44179   1.37425
