44

Au    0.00000   0.00000   0.00000
N    -1.36430   2.99408   0.96916
H    -1.35149   1.98073   0.93317
H    -2.05922   3.42704   0.38388
P     0.92968   1.16022   1.68551
C     0.93296   2.93514   1.52150
H     1.89085   3.41132   1.65823
C    -0.15620   3.61349   1.09134
C    -0.15911   5.10864   0.81025
C    -0.53347   5.32901  -0.66364
H    -0.44745   6.38436  -0.91139
H    -1.55528   5.02165  -0.87540
H     0.13637   4.76771  -1.31215
C     1.20735   5.74996   1.06127
H     1.14693   6.81735   0.86089
H     1.96448   5.32592   0.40602
H     1.51716   5.61935   2.09538
C    -1.19125   5.78572   1.72296
H    -0.91237   5.65525   2.76629
H    -2.18535   5.37048   1.58195
H    -1.23196   6.85102   1.50950
C     0.19319   0.77303   3.30221
C    -0.48135   1.71590   4.06679
H    -0.55933   2.73469   3.71383
C    -1.04609   1.34046   5.27352
H    -1.57002   2.07228   5.87127
C    -0.94157   0.03179   5.71435
H    -1.38320  -0.25632   6.65675
C    -0.27616  -0.91271   4.94646
H    -0.20069  -1.93419   5.28895
C     0.28514  -0.54617   3.73933
H     0.79989  -1.27260   3.12234
C     2.67942   0.80004   1.97807
C     3.39517   0.07146   1.03658
H     2.89056  -0.28541   0.14721
C     4.73772  -0.19220   1.24468
H     5.29459  -0.75850   0.51309
C     5.36256   0.26749   2.39200
H     6.40944   0.05866   2.55547
C     4.64835   0.99248   3.33425
H     5.13884   1.34649   4.22924
C     3.30816   1.26059   3.13177
H     2.73971   1.82004   3.86296
O    -0.71921  -0.80259  -1.24943
