63

Pd    0.00000   0.00000   0.00000
Cl    1.63528   0.42032  -1.52264
P     1.35963   0.71428   1.60453
C     5.19566  -0.88127   2.25040
H     5.53400  -1.70456   2.87520
H     5.82934  -0.02022   2.44753
H     5.31658  -1.16737   1.20853
C     3.73560  -0.55641   2.54627
H     3.63463  -0.26914   3.59488
H     3.12836  -1.45456   2.39061
C     3.20536   0.54751   1.63541
H     3.42609   0.27378   0.59176
C     3.73565   1.96456   1.87457
H     4.76166   2.05965   1.51850
H     3.72263   2.20553   2.94091
C     2.80305   2.90397   1.11263
H     3.04715   3.94942   1.30310
H     2.89495   2.70662   0.04199
C     1.37529   2.57047   1.55730
H     1.20011   2.94977   2.57426
C     0.26244   3.06364   0.62555
H     0.46367   2.70266  -0.39601
H    -0.69573   2.62908   0.96358
C     0.14220   4.58251   0.60870
H    -0.68875   4.88677  -0.02247
H     1.04944   5.03468   0.21647
H    -0.03067   4.96656   1.61295
C     0.61561   0.33516   3.23072
C     1.20338   0.68938   4.43954
H     2.13289   1.23954   4.44426
C     0.59755   0.35166   5.63665
H     1.05909   0.63161   6.57191
P    -1.35884  -0.71527   1.60466
C    -5.19714   0.87495   2.25031
H    -5.53669   1.69795   2.87484
H    -5.82947   0.01299   2.44781
H    -5.31860   1.16049   1.20834
C    -3.73655   0.55249   2.54617
H    -3.63505   0.26579   3.59489
H    -3.13070   1.45149   2.39007
C    -3.20478  -0.55095   1.63562
H    -3.42583  -0.27771   0.59190
C    -3.73314  -1.96869   1.87493
H    -4.75909  -2.06511   1.51904
H    -3.71961  -2.20967   2.94125
C    -2.79947  -2.90688   1.11279
H    -3.04213  -3.95266   1.30330
H    -2.89189  -2.70964   0.04218
C    -1.37206  -2.57152   1.55713
H    -1.19615  -2.95067   2.57401
C    -0.25883  -3.06324   0.62508
H    -0.46066  -2.70232  -0.39639
H     0.69893  -2.62768   0.96301
C    -0.13685  -4.58197   0.60797
H     0.69445  -4.88517  -0.02326
H    -1.04356  -5.03513   0.21568
H     0.03648  -4.96598   1.61216
C    -0.61487  -0.33585   3.23080
C    -1.20257  -0.68993   4.43970
H    -2.13202  -1.24017   4.44452
C    -0.59674  -0.35195   5.63672
H    -1.05826  -0.63173   6.57204
O    -1.18680  -0.30492  -1.10500
