54

Ni    0.00000   0.00000   0.00000
P    -1.27451   1.51785   0.81904
P    -0.39308   0.82870  -2.03164
C     0.60131  -0.62656   1.74469
H     0.29860  -0.07351   2.63704
H     1.69591  -0.61219   1.67762
H     0.28241  -1.66827   1.84625
C    -1.69316   2.78454  -0.48499
H    -2.68469   3.20235  -0.28658
H    -0.96410   3.58981  -0.36176
C    -1.60891   2.23619  -1.91024
H    -1.34723   3.03020  -2.61454
H    -2.58043   1.83456  -2.20887
C    -0.90426  -0.04193  -3.59690
H    -0.06062  -0.70756  -3.81152
C    -1.14407   0.87791  -4.78902
H    -0.27956   1.50637  -4.98928
H    -2.00731   1.51898  -4.62192
H    -1.33965   0.28030  -5.67853
C    -2.11445  -0.93077  -3.32255
H    -1.92221  -1.55618  -2.45224
H    -2.30726  -1.58005  -4.17503
H    -3.01206  -0.34021  -3.14385
C     1.19126   1.68059  -2.53347
H     0.98002   2.48938  -3.24507
C     1.80712   2.25789  -1.26047
H     1.19415   3.05625  -0.84746
H     2.80183   2.65750  -1.45400
H     1.89732   1.45655  -0.51480
C     2.15471   0.66599  -3.14389
H     1.85455   0.37395  -4.14742
H     2.19645  -0.22111  -2.51282
H     3.15600   1.09068  -3.20409
C    -0.91829   2.60289   2.29295
H    -0.91669   1.91523   3.14665
C    -1.95119   3.69611   2.54500
H    -2.95631   3.28705   2.61629
H    -1.93526   4.44295   1.75463
H    -1.72553   4.20092   3.48353
C     0.48921   3.18091   2.16905
H     1.19619   2.39118   1.91736
H     0.79793   3.63471   3.10925
H     0.53510   3.94821   1.39828
C    -2.94111   0.77488   1.20915
H    -3.71173   1.55375   1.14311
C    -2.96432   0.14072   2.59632
H    -2.88865   0.88492   3.38557
H    -2.14291  -0.56608   2.69367
H    -3.89842  -0.40177   2.73723
C    -3.19729  -0.29761   0.15296
H    -3.33537   0.14551  -0.83020
H    -4.08546  -0.88030   0.39322
H    -2.33783  -0.97821   0.11245
O     0.80433  -1.29192  -0.63758
