50

Au    0.00000   0.00000   0.00000
N    -1.94032   1.59946  -1.61363
N    -1.77227   2.47093   0.33003
C     1.90602   3.49784   0.70410
H     2.47159   3.66847   1.61618
H     2.46217   3.91525  -0.13206
H     1.81325   2.42317   0.55578
C    -0.82664  -1.01668  -3.68554
H    -0.13970  -1.84081  -3.55690
C    -3.53388   3.02622  -2.77039
H    -4.18161   3.88752  -2.73960
C    -3.41440   2.25272  -3.87148
H    -3.96945   2.47133  -4.77074
C    -0.26023   3.50917   1.91973
C     0.52086   4.14307   0.79319
H     0.00488   3.95879  -0.15507
C     0.62995   5.65857   0.97284
H    -0.35764   6.10406   1.07628
H     1.11864   6.09942   0.10704
H     1.21306   5.90837   1.85462
C    -2.06432   2.05880   2.70417
C    -1.63935   2.27597   4.00795
H    -2.15586   1.79602   4.82406
C    -1.36351   2.68995   1.67523
C    -1.79974   0.79369  -2.72166
C    -2.66475   3.24869  -0.35514
H    -3.13262   4.10487   0.08414
C    -1.31682   1.45647  -0.42206
C    -3.22760   1.13744   2.42348
H    -3.45072   1.15049   1.35139
C     0.13037   3.69661   3.23877
H     0.98533   4.31604   3.45884
C    -2.54242   1.11298  -3.87750
C    -0.55477   3.08928   4.27313
H    -0.23479   3.24268   5.29271
C    -2.36817   0.26786  -4.97905
H    -2.91262   0.46614  -5.89106
C    -4.48666   1.59313   3.16417
H    -4.35276   1.52932   4.24036
H    -5.32762   0.96105   2.88825
H    -4.72990   2.62284   2.90864
C    -1.50426  -0.80492  -4.88368
H    -1.35252  -1.47058  -5.71801
C    -2.78599   2.70549  -1.60541
N    -0.97358  -0.23563  -2.63520
C    -2.85372  -0.29710   2.80385
H    -2.64494  -0.37471   3.86740
H    -1.96677  -0.61336   2.25734
H    -3.66891  -0.97464   2.56058
O     1.08539  -1.19289   0.34850
