66

Ni    0.00000   0.00000   0.00000
P    -1.29501   1.63821  -0.49102
N     3.57309  -0.86688   1.95401
C     0.91631  -1.73752   0.68243
C     0.57603  -0.90756   1.77543
H     1.28297  -0.51329   2.48727
C    -0.81237  -0.67823   1.74315
H    -1.38128  -0.15006   2.49578
C    -1.40620  -1.61046   0.79590
C    -2.72496  -1.93396   0.49826
H    -3.54104  -1.43706   1.00460
C    -2.96430  -2.91017  -0.45429
H    -3.98227  -3.18317  -0.69182
C    -1.91644  -3.55156  -1.10855
H    -2.13933  -4.31117  -1.84360
C    -0.59545  -3.23999  -0.83257
H     0.20810  -3.74267  -1.35095
C    -0.32841  -2.26817   0.12548
C     2.27402  -2.29492   0.38693
H     2.30185  -2.64920  -0.64571
H     2.43800  -3.15707   1.04237
C     3.39698  -1.26790   0.56677
H     4.33131  -1.67841   0.14714
H     3.12775  -0.38471  -0.01861
C     4.11493   0.47077   2.06566
H     4.16865   0.74642   3.11909
H     3.45024   1.16826   1.55683
H     5.12242   0.56373   1.63052
C     4.36721  -1.81734   2.70052
H     3.91073  -2.80361   2.64041
H     4.39601  -1.51707   3.74758
H     5.40265  -1.88899   2.32831
C    -2.88429   1.75352   0.39773
C    -2.86958   2.24962   1.69939
H    -1.93778   2.61111   2.11590
C    -4.03106   2.28421   2.44605
H    -4.01459   2.67557   3.45294
C    -5.21631   1.80947   1.90494
H    -6.12401   1.83191   2.48972
C    -5.23336   1.30209   0.61677
H    -6.15498   0.92709   0.19581
C    -4.07184   1.26837  -0.13589
H    -4.08614   0.86676  -1.13916
C    -1.83411   1.52245  -2.22746
C    -2.01642   0.23534  -2.72795
H    -1.79577  -0.61653  -2.09132
C    -2.45191   0.04811  -4.02508
H    -2.58957  -0.95185  -4.40887
C    -2.69902   1.14632  -4.83373
H    -3.03210   1.00338  -5.85114
C    -2.50378   2.42656  -4.34374
H    -2.68282   3.28109  -4.97984
C    -2.07216   2.62018  -3.04249
H    -1.90839   3.62062  -2.66981
C    -0.64372   3.32581  -0.31303
C    -1.48323   4.43645  -0.28153
H    -2.55519   4.30528  -0.34356
C    -0.94285   5.70306  -0.15706
H    -1.59467   6.56450  -0.13528
C     0.42991   5.86919  -0.05853
H     0.84534   6.86144   0.03835
C     1.26649   4.76549  -0.07875
H     2.33535   4.89488   0.00328
C     0.73161   3.49582  -0.20310
H     1.37005   2.62043  -0.22413
O     0.92930   0.26500  -1.33742
