53

Pd    0.00000   0.00000   0.00000
C    -1.27339  -1.46072  -2.12409
H    -0.21964  -1.53545  -2.41022
H    -1.66211  -0.49450  -2.45831
H    -1.83058  -2.26541  -2.61885
C    -0.84373  -2.86753  -0.22587
H    -1.45129  -3.68847  -0.61627
H    -0.84313  -2.91048   0.86557
H     0.18421  -2.96738  -0.57952
C    -5.63943  -2.23831  -2.30894
H    -5.17788  -2.91805  -3.02743
H    -6.24988  -1.49745  -2.81797
H    -6.24102  -2.81994  -1.60878
C    -3.74725  -2.24026  -0.93236
C    -2.73837  -1.36849  -0.16756
H    -2.76647  -1.72656   0.87271
C    -3.18728   0.09629  -0.14664
H    -3.31601   0.50473  -1.15209
C    -4.46991   0.22569   0.62495
C    -6.33257   1.61297   0.99125
H    -7.16861   1.12609   0.48596
H    -6.46226   2.69281   0.97668
H    -6.26810   1.24013   2.01494
C    -2.24964   2.82871   0.55669
C    -3.02399   3.36874  -0.46505
H    -3.48225   2.73082  -1.20569
C    -3.21988   4.73725  -0.52687
H    -3.83016   5.15412  -1.31459
C    -2.62904   5.57250   0.40680
H    -2.78231   6.63973   0.34825
C    -1.82881   5.04013   1.40588
H    -1.35077   5.69106   2.12215
C    -1.63398   3.67483   1.48050
H    -0.99211   3.24947   2.24042
C    -2.05995   0.69531   2.45148
C    -3.07219   1.26118   3.22074
H    -3.73306   1.99712   2.78368
C    -3.21535   0.89095   4.54473
H    -4.00314   1.32543   5.14212
C    -2.34954  -0.03395   5.10734
H    -2.46781  -0.31979   6.14171
C    -1.32526  -0.58211   4.35210
H    -0.64074  -1.28764   4.79833
C    -1.17746  -0.21822   3.02581
H    -0.34978  -0.62030   2.42455
Cl    1.83482  -1.12984  -0.67611
N    -1.36037  -1.56582  -0.66325
O    -3.73312  -3.44124  -0.93564
O    -4.63838  -1.51032  -1.60380
O    -4.83921  -0.55281   1.46641
O    -5.12374   1.33974   0.29220
P    -1.81921   1.07861   0.69249
O     0.92665   1.25562   0.53595
