67

Ni    0.00000   0.00000   0.00000
O     6.33322   0.03046  -2.12596
O     0.48019   1.86491   1.30169
N     1.82082   0.10181  -0.32024
N     5.88648   0.68381  -1.12666
C     2.48451  -0.57952  -1.27074
C     3.81130  -0.40126  -1.53551
C     4.57712   0.53576  -0.79790
C     3.86830   1.21988   0.21223
C     2.53041   0.97381   0.42273
C     1.84605   1.64514   1.58549
C    -0.25298   2.23521   2.44788
C     8.22732   1.33333  -1.04853
C     6.85698   1.53217  -0.39617
C     6.47336   3.00935  -0.53938
C     6.95678   1.07787   1.06389
H     1.90728  -1.29623  -1.84019
H     4.29930  -0.97070  -2.30907
H     4.33653   1.94402   0.85394
H     1.93918   0.97285   2.45509
H     2.33562   2.60150   1.82648
H     0.17377   3.13852   2.89995
H    -1.27088   2.43987   2.12124
H    -0.26059   1.42680   3.18733
H     6.40773   3.26919  -1.59380
H     5.52619   3.25268  -0.07068
H     7.24558   3.62408  -0.08348
H     7.20184   0.01874   1.10154
H     7.75420   1.63023   1.55485
H     6.04265   1.23227   1.62589
H     8.52687   0.29035  -0.99506
H     8.19710   1.61769  -2.09661
H     8.96622   1.94245  -0.53549
Cl    0.53332  -1.23434   1.80278
O    -6.33232   0.03007   2.12676
O    -0.48045   1.86449  -1.30252
N    -1.82089   0.10122   0.31961
N    -5.88600   0.68364   1.12738
C    -2.48449  -0.58021   1.27008
C    -3.81109  -0.40173   1.53527
C    -4.57682   0.53559   0.79808
C    -3.86829   1.21962  -0.21230
C    -2.53050   0.97336  -0.42317
C    -1.84636   1.64460  -1.58612
C     0.25240   2.23503  -2.44885
C    -8.22677   1.33414   1.05039
C    -6.85666   1.53225   0.39741
C    -6.47256   3.00931   0.54021
C    -6.95727   1.07797  -1.06262
H    -1.90735  -1.29696   1.83946
H    -4.29896  -0.97110   2.30894
H    -4.33666   1.94376  -0.85390
H    -1.93954   0.97212  -2.45557
H    -2.33603   2.60088  -1.82725
H    -0.17468   3.13821  -2.90088
H     1.27030   2.44002  -2.12243
H     0.26010   1.42664  -3.18833
H    -6.40570   3.26898   1.59458
H    -5.52580   3.25242   0.07060
H    -7.24504   3.62436   0.08518
H    -7.20320   0.01904  -1.09989
H    -7.75436   1.63088  -1.55351
H    -6.04308   1.23143  -1.62481
H    -8.52641   0.29117   0.99757
H    -8.19589   1.61887   2.09835
H    -8.96590   1.94313   0.53749
O    -0.38758  -0.90620  -1.32329
