33

C    -0.17336   2.69191   1.69955
C    -0.70876   3.06998   0.50502
C    -0.25512   2.47173  -2.19305
H    -0.73358   3.39012  -2.53093
H    -0.39859   1.66819  -2.91804
C     1.22823   2.68650  -1.92052
H     1.38067   3.56057  -1.26232
H     1.73855   2.88467  -2.87575
C     3.15263   1.50278  -1.20478
H     3.50902   2.32889  -0.57735
H     3.62477   1.56800  -2.19110
H     3.40016   0.54887  -0.73913
C    -0.07967   0.45953   3.36778
H    -0.49344   1.29259   3.93483
H     0.70690  -0.03242   3.93733
C    -1.14768  -0.54291   2.95214
H    -1.74196  -0.83465   3.83160
H    -0.66194  -1.43834   2.52814
C    -2.83319  -0.87222   1.33036
H    -3.48345  -1.36631   2.06021
H    -2.24270  -1.62937   0.78765
H    -3.43703  -0.30058   0.62593
C    -0.12263   3.54611   2.81172
C    -1.08873   4.38678   0.21025
Cl    1.15351  -1.79891   0.68523
N    -0.06928   4.20139   3.75281
N    -1.38406   5.45138  -0.10214
O    -1.98016   0.06290   1.97506
O     1.74645   1.52340  -1.31840
Pd    0.00000   0.00000   0.00000
S     0.71636   1.16704   1.88236
S    -1.14409   1.86031  -0.71975
O    -0.54502  -0.76472  -1.35671
