26

Ti    0.00000   0.00000   0.00000
Cl   -0.88041   1.96074   0.35625
N    -1.76182  -0.74733  -0.25199
N    -1.01284  -1.13925  -1.12487
C    -1.34959  -1.85688  -2.27156
C    -2.67648  -2.19324  -2.55513
H    -3.45177  -1.88538  -1.86743
C    -2.95797  -2.89869  -3.70749
H    -3.97840  -3.16175  -3.94113
C    -1.93169  -3.26621  -4.56771
H    -2.16095  -3.81495  -5.46874
C    -0.61538  -2.93000  -4.28243
H     0.17327  -3.21647  -4.96103
C    -0.31417  -2.22508  -3.13321
H     0.69897  -1.93283  -2.88788
C     1.76153   0.09947   1.42715
H     2.42264   0.95151   1.54589
C     0.60187  -0.16462   2.19199
H     0.21482   0.45238   2.99359
C     0.11324  -1.43751   1.81883
H    -0.70495  -1.96479   2.29403
C     0.97699  -1.96446   0.82993
H     0.93286  -2.96648   0.41863
C     1.99567  -1.01800   0.59164
H     2.85881  -1.16095  -0.04699
O     0.75692   0.52099  -1.37045
