55

Pt    0.00000   0.00000   0.00000
As    2.10914  -0.56953  -0.87412
As    0.74979  -0.70514   2.11568
Cl   -1.95769   0.66756   0.99149
C     3.13914   1.06416  -1.00920
C     2.60450   2.21432  -0.43941
H     1.60414   2.17146  -0.00154
C     3.32070   3.39849  -0.45408
H     2.90012   4.29141  -0.01552
C     4.57533   3.43589  -1.04061
H     5.13437   4.35977  -1.05901
C     5.11380   2.29292  -1.61107
H     6.09098   2.32781  -2.07089
C     4.39967   1.10762  -1.59474
H     4.81154   0.20822  -2.04397
C     2.59717  -1.54298  -2.47393
C     2.55158  -0.86495  -3.68983
H     2.28234   0.18731  -3.69361
C     2.82874  -1.53333  -4.86846
H     2.79307  -1.00486  -5.80965
C     3.14461  -2.88279  -4.84210
H     3.36075  -3.40493  -5.76231
C     3.17161  -3.56640  -3.63804
H     3.40540  -4.62122  -3.62007
C     2.89096  -2.90164  -2.45607
H     2.89618  -3.44224  -1.51481
C     3.08551  -1.47460   0.60816
C     2.72908  -0.80940   1.93292
C     0.42290  -0.03037   3.90097
C    -0.86282  -0.18973   4.41312
H    -1.60820  -0.69581   3.80593
C    -1.17877   0.30920   5.66349
H    -2.17636   0.18584   6.05820
C    -0.21595   0.97545   6.40602
H    -0.46223   1.36681   7.38192
C     1.05892   1.15044   5.89444
H     1.80471   1.67914   6.47052
C     1.37878   0.65503   4.64099
H     2.37409   0.80397   4.23493
C     0.33869  -2.59514   2.27893
C     0.49438  -3.29820   3.46818
H     0.80490  -2.76920   4.36440
C     0.24527  -4.65938   3.50493
H     0.36284  -5.20432   4.43039
C    -0.15610  -5.32381   2.35667
H    -0.35094  -6.38552   2.39015
C    -0.31629  -4.62861   1.16876
H    -0.63759  -5.14540   0.27637
C    -0.07125  -3.26718   1.13180
H    -0.21776  -2.69974   0.20853
H     2.77545  -2.52752   0.63249
H     4.16597  -1.44104   0.42226
H     3.16006  -1.35671   2.78078
H     3.12098   0.21748   1.94990
O    -0.36402   0.36494  -1.56742
