27

Nb    0.00000   0.00000   0.00000
Cl    2.08152   0.24274   0.80952
Cl   -0.87504  -0.63335   2.13793
Cl    0.02855  -2.12312  -0.73517
N    -0.69003   1.92370   0.43895
N    -1.97398   0.44917  -0.51513
N    -2.91511   2.58145  -0.06375
C    -1.91025   1.69656  -0.04810
C    -0.39689   3.21805   1.01260
H     0.67537   3.40279   0.89738
H    -0.63224   3.20086   2.08750
C    -1.22139   4.29044   0.29956
H    -1.04034   5.27081   0.73759
H    -0.92867   4.31139  -0.75252
C    -2.70164   3.93621   0.40583
H    -3.04006   4.02310   1.44682
H    -3.30289   4.61119  -0.21061
C    -4.22755   2.18786  -0.53739
H    -4.34915   2.49653  -1.58409
H    -4.97896   2.70659   0.06540
C    -4.38991   0.67617  -0.40927
H    -5.33409   0.36377  -0.85269
H    -4.38405   0.39928   0.64730
C    -3.21272  -0.01451  -1.09878
H    -3.26077  -1.09985  -0.96928
H    -3.21248   0.20678  -2.17676
O     0.41806   0.60066  -1.47883
