51

Pd    0.00000   0.00000   0.00000
Cl    1.48919  -1.06107   1.31227
N    -0.16281   1.56350   1.39097
C    -1.41738   2.23863   1.02083
H    -1.45098   3.25513   1.44474
C    -2.18281   1.27486   1.97786
H    -2.87695   1.80857   2.63189
C    -0.80044   1.02426   2.62027
H    -0.50602  -0.01120   2.81289
C    -1.63198   2.37611  -0.49302
H    -0.89513   3.12872  -0.80735
N    -1.28811   1.14055  -1.20797
H    -2.11722   0.55671  -1.33274
C     1.04584   2.35692   1.50329
H     0.91038   3.22008   2.16583
H     1.33957   2.71739   0.51502
H     1.84130   1.71980   1.89213
C    -0.58116   1.82570   3.89503
H     0.45635   1.76065   4.21237
H    -1.20290   1.40245   4.68058
H    -0.85168   2.87269   3.77305
C    -3.02571   2.88883  -0.85519
H    -3.06415   3.16291  -1.90726
H    -3.27141   3.76949  -0.26698
H    -3.77531   2.12431  -0.67172
C    -2.91174   0.11212   1.35313
C    -2.34942  -1.15387   1.16450
H    -1.37836  -1.42909   1.57745
C    -3.07498  -2.14780   0.51845
H    -2.62223  -3.11623   0.37099
C    -4.36054  -1.90625   0.06792
H    -4.91176  -2.67926  -0.44534
C    -4.94903  -0.67663   0.31193
H    -5.96862  -0.49017   0.00731
C    -4.23198   0.31641   0.95473
H    -4.70878   1.26399   1.16869
C    -0.67446   1.37953  -2.52965
H    -0.57255   0.40291  -3.01311
H    -1.31577   2.02456  -3.14632
C     0.68749   2.00854  -2.35542
C     0.86407   3.37851  -2.51268
H     0.03822   3.99389  -2.84595
C     2.09445   3.96612  -2.26368
H     2.21506   5.03189  -2.39217
C     3.16168   3.18884  -1.84893
H     4.11716   3.64840  -1.64458
C     3.00670   1.81712  -1.71999
H     3.84455   1.20297  -1.42647
C     1.77963   1.22267  -1.97482
H     1.69632   0.13575  -1.94498
O    -0.10239  -1.25433  -1.06708
