45

Pd    0.00000   0.00000   0.00000
Cl    0.80024  -1.92922   0.78069
N    -0.71586   1.95850  -0.49685
C    -0.56856   2.78972   0.71602
H    -0.37393   3.83573   0.43630
C    -2.08572   2.62790   0.99997
H    -2.56695   3.58657   1.20632
C    -2.17569   2.22022  -0.49431
H    -2.37041   3.12966  -1.08094
C     0.52551   2.35967   1.71386
H     1.48513   2.66343   1.26750
N     0.55616   0.90666   1.84339
H    -0.14748   0.57011   2.50069
H     1.46402   0.56345   2.15677
C     0.01325   2.38235  -1.68069
H    -0.18053   3.43963  -1.91060
H    -0.30264   1.76216  -2.52110
H     1.08733   2.23830  -1.52556
C    -3.09190   1.10514  -0.97054
H    -3.50214   1.34372  -1.94788
H    -3.91577   0.96460  -0.27568
H    -2.53605   0.16900  -1.07089
C    -2.51037   1.67164   2.07882
C    -2.43827   0.28222   1.97664
H    -2.08067  -0.21189   1.06663
C    -2.82305  -0.52165   3.03942
H    -2.75158  -1.59392   2.93851
C    -3.29111   0.03979   4.21484
H    -3.58926  -0.59093   5.03841
C    -3.37974   1.41723   4.32198
H    -3.74965   1.86975   5.22980
C    -2.99527   2.22066   3.26427
H    -3.06575   3.29481   3.36273
C     0.34874   3.12329   3.01569
C    -0.04190   2.51548   4.20074
H    -0.20943   1.45009   4.25747
C    -0.22227   3.26765   5.34954
H    -0.52756   2.77668   6.26113
C    -0.01445   4.63445   5.33211
H    -0.15846   5.21825   6.22835
C     0.39025   5.24791   4.15842
H     0.56797   6.31258   4.13572
C     0.57292   4.49673   3.01279
H     0.90290   4.98225   2.10531
O    -0.33159  -0.67678  -1.46783
