69

C     0.61030  -1.86951  -0.29619
C     1.75321  -3.47554  -1.54443
H     2.84691  -3.44290  -1.61331
H     1.36465  -3.98353  -2.43222
C     1.26378  -4.10167  -0.23698
H     0.54181  -4.90760  -0.40197
H     2.07741  -4.49411   0.37875
C     0.05546  -3.17737   1.72267
C     0.85977  -3.00109   2.85009
C     0.30942  -3.25007   4.09734
H     0.91766  -3.11386   4.98014
C    -1.01150  -3.65700   4.23859
C    -1.79507  -3.79450   3.10255
H    -2.83095  -4.08512   3.20333
C    -1.28178  -3.55593   1.83533
C     2.26107  -2.49594   2.70387
H     2.67992  -2.24259   3.67362
H     2.26509  -1.60457   2.07539
H     2.90417  -3.24121   2.23703
C    -1.57730  -3.90741   5.60374
H    -1.66063  -2.97002   6.15340
H    -0.92518  -4.56786   6.17248
H    -2.56446  -4.35755   5.54069
C    -2.14574  -3.64369   0.61692
H    -2.10732  -2.69797   0.07450
H    -3.17674  -3.84806   0.89114
H    -1.80474  -4.42983  -0.05543
C     1.47431  -1.16692  -2.50192
H     2.54370  -0.91342  -2.52160
H     0.89910  -0.25470  -2.25863
C     1.03077  -1.69606  -3.84077
C    -0.31439  -1.97640  -4.05226
H    -1.02770  -1.77970  -3.26407
C    -0.73451  -2.48602  -5.26722
H    -1.78133  -2.69782  -5.42622
C     0.18287  -2.71848  -6.27918
H    -0.14630  -3.11417  -7.22873
C     1.52276  -2.43859  -6.07334
H     2.24079  -2.61564  -6.86066
C     1.94627  -1.93200  -4.85647
H     2.99325  -1.71419  -4.69731
C    -0.71227  -0.08507   1.75449
H    -0.75095  -0.95667   2.40741
C    -1.29365   1.09118   2.29174
C    -1.25883   2.28939   1.52699
C    -1.83158   3.45135   2.01840
H    -1.82330   4.36658   1.44708
C    -2.43862   3.44384   3.26559
H    -2.88428   4.35376   3.63835
C    -2.47614   2.28739   4.03125
H    -2.94948   2.30031   5.00140
C    -1.91236   1.12556   3.55188
H    -1.93886   0.21658   4.13508
C    -0.35559   3.28002  -0.49230
H    -1.26064   3.89836  -0.58487
C     0.79643   4.07825   0.11467
H     0.52941   4.47540   1.09128
H     1.06340   4.90282  -0.54072
H     1.65971   3.42525   0.23518
C     0.02074   2.72737  -1.86191
H     0.94875   2.15737  -1.77775
H     0.17933   3.53774  -2.56816
H    -0.77713   2.08631  -2.23997
N     1.21992  -2.12726  -1.45587
N     0.61633  -2.97728   0.43552
O    -0.65343   2.14797   0.32209
Cl   -1.88834  -0.30260  -1.27054
Ru    0.00000   0.00000   0.00000
O     1.56616   0.46382   0.23349
