53

Pd    0.00000   0.00000   0.00000
As    2.23667  -0.34055   0.52854
C     3.51726  -1.74919   0.90410
C     3.55775  -2.28237   2.18838
C     4.40539  -3.33693   2.47335
C     5.20300  -3.87472   1.47541
C     5.13921  -3.36955   0.18726
C     4.28965  -2.31582  -0.10316
C     2.99792   0.78854  -0.86849
C     4.33889   0.96056  -1.09958
C     4.81420   1.79553  -2.12864
C     3.90477   2.43888  -2.92793
C     1.56951   2.92110  -3.56488
C     0.23782   2.71394  -3.33195
C    -0.15264   1.88314  -2.27351
N     0.70437   1.27984  -1.47593
C     2.51735   2.28361  -2.73708
C     2.04433   1.45085  -1.68612
C     6.28976   1.95373  -2.31940
Cl   -2.13386   0.74811  -0.10695
C     2.37052   0.87081   2.04338
C     1.24744   1.45532   2.56848
C     1.32093   2.34114   3.66640
C     2.54469   2.61743   4.22189
C     5.01482   2.29867   4.21987
C     6.09852   1.70723   3.62686
C     5.89479   0.87715   2.51184
N     4.71810   0.61991   2.00603
C     3.72666   2.04997   3.70352
C     3.63913   1.17678   2.58781
C     0.05326   2.93217   4.19273
H     2.91618  -1.85941   2.95647
H     4.44206  -3.74627   3.47248
H     5.86557  -4.69773   1.69924
H     5.74776  -3.80357  -0.59327
H     4.21713  -1.92769  -1.11561
H     5.04391   0.44670  -0.45850
H     4.23834   3.08003  -3.73154
H     1.91200   3.55635  -4.36857
H    -0.52129   3.17561  -3.94263
H    -1.20468   1.72190  -2.05830
H     6.74242   2.35201  -1.41247
H     6.74888   0.98717  -2.52137
H     6.50913   2.62526  -3.14505
H     0.25875   1.22320   2.14585
H     2.62158   3.28270   5.07081
H     5.12866   2.95103   5.07435
H     7.09860   1.87119   3.99739
H     6.73741   0.40696   2.02019
H    -0.47012   3.46374   3.39925
H    -0.60685   2.13920   4.54175
H     0.24558   3.61827   5.01329
O    -0.42585  -1.11656   1.13774
