41

Pd    0.00000   0.00000   0.00000
Cl    0.23158   1.85921  -1.15883
N    -0.91765   0.83088   1.65025
N    -0.68670   0.01404   2.72616
N    -0.04326  -1.61427   1.22850
C    -0.30530  -1.29885   2.50941
C    -0.21361  -2.23744   3.53535
C     0.15236  -3.53168   3.21571
C     0.40990  -3.85369   1.88836
C     0.30190  -2.86700   0.92776
C    -0.98940   0.65584   3.90756
C    -1.43450   1.89184   3.56542
C    -1.87842   3.23828   4.02192
C    -0.68382   4.16238   3.68774
C    -0.66754   4.20090   2.14523
C    -1.86307   3.30397   1.72750
C    -1.39123   1.94715   2.14375
C    -2.88130   3.58087   2.88676
C    -2.34928   3.47863   0.30864
C    -3.40791   5.01050   2.93933
C    -4.08861   2.64329   2.86554
H    -0.42486  -1.96149   4.55477
H     0.23232  -4.27743   3.99095
H     0.69257  -4.85353   1.60434
H     0.50579  -3.05404  -0.12030
H    -0.85590   0.18222   4.85733
H    -2.24527   3.31588   5.04206
H    -0.83811   5.15073   4.11687
H     0.24341   3.76248   4.09795
H    -0.80710   5.20822   1.75873
H     0.25863   3.81155   1.72388
H    -1.54183   3.25924  -0.38663
H    -2.68692   4.49933   0.14957
H    -3.17122   2.79661   0.10324
H    -2.62019   5.75351   2.89882
H    -3.96791   5.15715   3.86100
H    -4.08213   5.18563   2.10450
H    -3.79761   1.59984   2.77304
H    -4.73699   2.88944   2.02837
H    -4.66228   2.75736   3.78343
O     0.76576  -0.81374  -1.21406
