61

C     0.35602   0.14093  -2.83411
H    -0.27094   0.33667  -3.71747
H     1.00765  -0.72097  -3.05549
C     1.21271   1.39000  -2.50260
H     2.03743   1.48252  -3.21410
H     0.56820   2.26962  -2.57639
C     2.56668  -1.07922  -1.09155
C     2.88575   0.44924  -1.00880
H     3.32373   0.59740  -0.01693
H     3.63113   0.70047  -1.77071
C     1.84497   2.58243  -0.47705
H     2.09942   2.43388   0.57622
H     0.88559   3.11316  -0.49843
C     2.89769   3.47778  -1.11869
C     4.17223   5.41339  -0.78130
H     5.13312   4.92161  -0.94315
H     4.25877   6.17928  -0.01582
H     3.83471   5.84658  -1.72449
C    -1.33841  -3.17892   0.78305
C    -2.18879  -4.24681   0.51311
H    -3.16095  -4.07138   0.07307
C    -1.77759  -5.53673   0.79611
H    -2.43214  -6.36795   0.57867
C    -0.52801  -5.76282   1.35139
H    -0.20943  -6.77300   1.56149
C     0.31332  -4.69784   1.63158
H     1.28756  -4.87657   2.05996
C    -0.08932  -3.40423   1.35317
H     0.56115  -2.56195   1.54544
C    -2.98558  -1.45844  -0.90496
C    -4.04877  -0.56104  -0.94651
H    -4.22939   0.09507  -0.10736
C    -4.84742  -0.50055  -2.07466
H    -5.67203   0.19556  -2.10984
C    -4.58229  -1.31799  -3.16176
H    -5.20539  -1.26369  -4.04227
C    -3.50872  -2.19501  -3.12943
H    -3.29348  -2.81918  -3.98434
C    -2.70486  -2.26356  -2.00689
H    -1.85245  -2.92896  -1.97900
C    -2.80389  -1.06051   1.98041
C    -2.25018  -0.25441   2.96837
H    -1.26746   0.17392   2.81464
C    -2.96735   0.00183   4.12384
H    -2.54380   0.63493   4.88834
C    -4.22698  -0.54811   4.29784
H    -4.78610  -0.34387   5.19877
C    -4.77397  -1.36067   3.31700
H    -5.75465  -1.79115   3.45486
C    -4.06507  -1.62239   2.15930
H    -4.48993  -2.25464   1.39228
N     1.68862   1.28515  -1.12347
O    -0.39787  -0.13291  -1.73315
O     1.50653  -1.47167  -0.50178
O     0.58347   0.22861   1.53007
O     3.35079  -1.80768  -1.66397
O     3.37568   3.32543  -2.21147
O     3.21507   4.47706  -0.29748
P    -1.84478  -1.46440   0.49395
Re    0.00000   0.00000   0.00000
O    -1.15095   1.17351   0.14376
