57

C     1.26072  -2.43416   1.14522
C     1.67915  -1.34250   2.12505
C     2.65958  -1.56285   3.08008
H     3.14056  -2.52777   3.10805
C     2.99650  -0.52268   3.92815
H     3.79142  -0.63003   4.64986
C     2.27769   0.65976   3.83794
H     2.47502   1.49849   4.48676
C     1.27058   0.77662   2.88698
C     0.42922   2.02131   2.89703
C    -1.76872   2.81859   2.72214
H    -1.42910   3.60830   3.39481
H    -2.73960   2.43373   3.02474
H    -1.81316   3.19877   1.70115
C    -1.74557  -2.19978   2.10703
C    -1.43800  -1.54576   3.29995
H    -1.49006  -0.46626   3.33704
C    -1.05994  -2.27637   4.40985
H    -0.81731  -1.76787   5.33186
C    -0.97925  -3.65904   4.33570
H    -0.66823  -4.22731   5.19930
C    -1.29167  -4.31050   3.15465
H    -1.22374  -5.38584   3.09570
C    -1.67353  -3.58651   2.03858
H    -1.90358  -4.09515   1.11373
C    -3.39565  -0.04137   1.07976
C    -4.26378  -0.27775   2.13970
H    -4.14033  -1.15796   2.75504
C    -5.28755   0.61763   2.39937
H    -5.96069   0.43699   3.22450
C    -5.45236   1.73846   1.60165
H    -6.25373   2.43198   1.80813
C    -4.59038   1.97095   0.54013
H    -4.72128   2.84404  -0.08067
C    -3.56017   1.08644   0.27958
H    -2.86641   1.26061  -0.53397
C    -2.77138  -2.27895  -0.60642
C    -4.14015  -2.26554  -0.85928
H    -4.78618  -1.58888  -0.31896
C    -4.67257  -3.11801  -1.81001
H    -5.73460  -3.10328  -2.00497
C    -3.84881  -3.98031  -2.51398
H    -4.26874  -4.63882  -3.25963
C    -2.48525  -3.99219  -2.26705
H    -1.84038  -4.65852  -2.81967
C    -1.94331  -3.14531  -1.31861
H    -0.87859  -3.14604  -1.13647
N     1.01306  -0.19625   2.01335
O     0.48795  -1.98694   0.22864
O     1.61291  -3.57982   1.31193
O    -0.49734   1.56272   0.21422
O     0.86820   3.11831   3.10739
O    -0.86195   1.71918   2.76603
P    -2.05274  -1.17866   0.64280
Cl    2.16728   0.21893  -0.72291
Re    0.00000   0.00000   0.00000
O    -0.46833  -0.20669  -1.56858
