56

C     2.14236   1.95838   5.13903
H     2.52640   2.31400   6.08326
C    -1.78070  -0.51038  -1.48186
C    -2.26176  -0.59003  -0.13650
H    -3.07915  -0.00342   0.27252
C    -1.74176  -1.77090   0.45329
H    -2.05541  -2.19829   1.39865
C    -0.90529  -2.38923  -0.49716
H    -0.40550  -3.34206  -0.37463
C    -0.93030  -1.61112  -1.66602
H    -0.40706  -1.85177  -2.58298
C    -1.86919   3.09671   0.98693
H    -2.28612   3.78239   1.71975
H    -1.46613   2.21753   1.50370
H    -2.66529   2.76714   0.31955
C    -2.95436   2.31098  -2.53867
H    -3.74045   2.12237  -1.81476
H    -3.38087   2.18102  -3.52667
H    -2.65113   3.34819  -2.43997
C    -0.58659   0.89127  -3.99526
H     0.40021   0.44941  -3.88506
H    -0.47974   1.82731  -4.53401
H    -1.18290   0.22800  -4.61519
C    -0.04860   3.02576  -0.74308
C    -0.77092   3.75993   0.21194
C    -0.43496   5.08382   0.44747
H    -0.99328   5.64739   1.18074
C     0.60404   5.68696  -0.23842
H     0.85068   6.72094  -0.05059
C     1.33846   4.95127  -1.14938
H     2.16994   5.40866  -1.66594
C     1.03343   3.62214  -1.40723
C     1.87140   2.82008  -2.35528
H     2.01550   1.81051  -1.96425
H     2.84279   3.28931  -2.49085
H     1.38965   2.74844  -3.32914
C     1.14852   1.04767   2.70318
C     0.55780   0.62443   3.91376
C     1.06432   1.08902   5.11414
H     0.61264   0.76582   6.04120
C     2.73313   2.36441   3.95279
H     3.58051   3.03420   3.97799
C     2.25794   1.92178   2.73199
C    -0.59146  -0.33405   3.84549
H    -0.26776  -1.25566   3.35273
H    -1.40342   0.09522   3.25144
H    -0.96124  -0.57179   4.83928
C     2.87205   2.32900   1.43119
H     3.10545   1.44024   0.83916
H     3.77699   2.90857   1.59141
H     2.15836   2.92427   0.85829
N    -0.40579   1.69620  -0.99968
N     0.66494   0.60851   1.52735
Nb    0.00000   0.00000   0.00000
Si   -1.45102   1.15900  -2.31317
O     1.42168  -0.50119  -0.67092
