27

Pt    0.00000   0.00000   0.00000
Cl   -1.96780   1.13218   0.19743
Cl   -0.12431  -0.65404   2.17906
Cl    1.27970   1.91430   0.56756
N     0.27018   0.44069  -2.02933
N     1.26175  -0.13900  -3.89767
N     1.84279  -0.92303  -0.37140
N     3.62157  -0.97633  -1.65318
C    -0.51635   0.84382  -3.04496
H    -1.44738   1.34301  -2.86432
C     0.09218   0.49021  -4.21532
H    -0.21456   0.62618  -5.23164
C     1.35243  -0.14328  -2.54536
C     2.29718  -0.69252  -1.60390
C     2.86578  -1.37619   0.37742
H     2.73094  -1.62930   1.41008
C     3.98006  -1.41627  -0.41122
H     4.98495  -1.70864  -0.18714
C     2.11197  -0.78098  -4.86375
H     2.94753  -0.13991  -5.15134
H     1.52376  -0.99693  -5.75438
H     2.48803  -1.72053  -4.46309
C     4.55712  -0.74775  -2.72122
H     4.58610  -1.58981  -3.41551
H     5.55024  -0.62340  -2.29206
H     4.29649   0.16354  -3.25628
O    -0.77306  -1.35859  -0.52832
