37

Cl    0.38126  -1.20996  -1.67624
Co    0.00000   0.00000   0.00000
C    -2.96750  -4.46582  -2.23526
C    -0.26910  -0.11831   2.68252
C    -0.11944   0.22769   4.01048
C     1.13243   0.70806   4.39315
C     2.14266   0.72763   3.46891
C     1.96084   0.34008   2.16071
C     3.05651   0.30247   1.15865
C    -3.97949  -5.40286  -2.33601
C    -4.90683  -5.57168  -1.31433
C    -4.84402  -4.80600  -0.16258
C    -3.83397  -3.86820  -0.06011
C    -2.89775  -3.69286  -1.08549
C    -2.11689  -2.11461   0.38581
C    -1.57848  -0.67057   2.16053
C    -2.37725   1.48230   1.52907
H    -2.24233  -4.32686  -3.02068
H    -0.94705   0.12996   4.69744
H     1.30167   1.03343   5.40903
H     3.17720   1.28756   0.70895
H     3.99178   0.03117   1.64110
H     2.81991  -0.40493   0.36425
H    -4.05004  -6.01273  -3.22321
H    -5.68795  -6.30843  -1.41770
H    -5.55953  -4.93033   0.63404
H    -1.18656  -2.41983  -1.40181
H    -1.92735  -1.48051   2.82532
H    -1.66096   2.09722   2.08483
H    -1.99724   1.31788   0.50587
H    -3.33373   1.99650   1.47137
N    -1.97505  -2.71859  -0.79884
N    -1.32670  -1.18790   0.83136
N     0.72114  -0.02127   1.79032
O    -2.63123   0.26105   2.19311
S    -3.51121  -2.75886   1.26282
O     0.62678   1.39678  -0.61535
