36

C    -2.45322  -2.17638   0.18119
C    -2.26371  -1.58576   1.58609
C    -0.89192  -0.95861   1.80833
C     0.27858  -1.61147   1.45136
C    -3.21454   0.20344  -1.29910
C    -2.70554   1.58746  -1.71404
C    -1.68142   2.18676  -0.78254
C    -1.63354   2.02825   0.54412
C    -1.27266  -1.65695  -2.53613
C     0.22612  -1.95437  -2.38987
C     1.02573  -0.84197  -1.72544
C     0.82614   0.51210  -1.97373
H    -3.50101  -2.41291  -0.02276
H    -1.86006  -3.08521   0.05712
H    -2.41028  -2.36769   2.34005
H    -3.03407  -0.82937   1.75996
H    -0.85623  -0.26733   2.64863
H     1.19559  -1.40624   1.98982
H     0.24094  -2.57627   0.95379
H    -3.81052   0.27280  -0.38599
H    -3.84014  -0.23305  -2.08398
H    -3.55237   2.28061  -1.78327
H    -2.27023   1.52240  -2.71462
H    -0.99216   2.87783  -1.25374
H    -2.38716   1.46844   1.07997
H    -0.93249   2.59132   1.14256
H    -1.84169  -2.56226  -2.76393
H    -1.45022  -0.92834  -3.33126
H     0.66533  -2.15035  -3.37467
H     0.34843  -2.86553  -1.79777
H     2.01327  -1.16206  -1.39258
H     0.07608   0.82127  -2.69433
H     1.65293   1.20080  -1.85099
P    -1.77099  -0.88788  -0.93760
Rh    0.00000   0.00000   0.00000
O     1.29063   0.75210   0.70081
