36

Cl    1.62089  -1.16494  -1.19334
Cl   -1.66735   1.15839   1.13025
C     0.39318   2.94529  -0.37514
C     0.54382   4.14140  -1.05230
C     0.82404   4.11621  -2.40928
C     0.96705   2.88476  -3.02528
C     0.80223   1.73253  -2.27648
C     2.60248   0.66284   1.21550
C     3.54692   0.80200   2.21578
C     3.16606   0.61629   3.53557
C     1.84271   0.30426   3.79704
C     0.95559   0.18134   2.74172
C    -3.20849  -0.79332  -0.90963
C    -1.29446  -2.14484  -2.32869
H     0.14993   2.93749   0.67890
H     0.43218   5.07277  -0.52048
H     0.93152   5.03294  -2.96909
H     1.19509   2.80684  -4.07585
H     0.92892   0.75958  -2.72909
H     2.88093   0.77837   0.17596
H     4.56512   1.04427   1.95644
H     3.88332   0.70991   4.33662
H     1.49278   0.14897   4.80479
H    -0.08445  -0.05981   2.91878
H    -3.83332  -1.13029  -1.72851
H    -3.14216  -1.53049  -0.11725
H    -3.57216   0.14984  -0.51585
H    -1.33499  -2.89350  -1.54587
H    -2.07514  -2.28438  -3.06720
H    -0.31684  -2.15237  -2.79936
N     0.50735   1.76208  -0.97848
N     1.33003   0.35411   1.47316
O    -1.65224   0.44729  -2.63736
Rh    0.00000   0.00000   0.00000
S    -1.53659  -0.52009  -1.55687
O    -0.46696  -1.41045   0.71769
