61

N     1.74918   0.54098  -0.67275
C     2.74285  -0.14159  -0.20889
H     3.73091  -0.09640  -0.66355
C     2.51260  -0.96130   0.94396
N     1.22001  -1.02348   1.34307
C     0.91956  -1.64192   2.48681
C     1.90314  -2.29339   3.23218
H     1.62565  -2.77659   4.15488
C     3.21769  -2.30222   2.79133
H     3.98167  -2.81829   3.35256
C     3.53476  -1.61143   1.63892
H     4.54794  -1.55290   1.27419
C    -0.46166  -1.59117   3.01259
C    -1.17887  -2.77901   3.18536
C    -2.44379  -2.72353   3.75041
H    -3.00894  -3.63619   3.86932
C    -2.99028  -1.51727   4.14481
H    -3.97740  -1.48754   4.58105
C    -2.28114  -0.34609   3.95900
H    -2.71810   0.59914   4.24526
C    -1.01761  -0.36145   3.38717
C    -0.30283   0.93919   3.15184
H    -0.68323   1.70588   3.82321
H    -0.50188   1.27722   2.11470
H     0.77442   0.84921   3.29757
C    -0.62833  -4.09743   2.72612
H    -0.01113  -3.97609   1.83881
H    -1.44390  -4.77529   2.48726
H    -0.02390  -4.56226   3.50609
C     1.90984   1.34589  -1.81597
C     2.37593   2.65894  -1.66573
C     2.50261   3.43821  -2.80462
H     2.84503   4.45673  -2.72399
C     2.19416   2.92609  -4.05160
H     2.30715   3.54608  -4.92828
C     1.73008   1.63169  -4.17962
H     1.48553   1.25116  -5.15823
C     1.56519   0.81966  -3.06692
C     1.04481  -0.59701  -3.20845
H     0.70244  -0.97156  -2.21793
C     2.16712  -1.51328  -3.70528
H     1.80436  -2.53405  -3.80334
H     3.00833  -1.51105  -3.01330
H     2.52422  -1.17855  -4.67713
C    -0.17079  -0.66519  -4.13390
H    -0.92415   0.04246  -3.79657
H    -0.59822  -1.66509  -4.10286
H     0.09338  -0.44001  -5.16380
C     2.65909   3.19130  -0.27703
H     3.14186   2.39575   0.30593
C     3.59313   4.39987  -0.26363
H     3.87447   4.63074   0.76179
H     3.10354   5.27629  -0.67985
H     4.49915   4.19764  -0.83091
C     1.33021   3.54202   0.40248
H     1.50291   3.88049   1.42207
H     0.66484   2.67191   0.42603
H     0.82631   4.33046  -0.15083
Cl   -1.90676  -1.07201   0.38101
Pd    0.00000   0.00000   0.00000
O    -0.85962   1.02372  -0.96724
