30

Re    0.00000   0.00000   0.00000
O    -2.54324  -1.72618   0.51030
S     4.51375   1.65905   0.59917
C    -1.66552  -1.03849   0.29259
S     6.43301   1.63005   3.08656
O     0.66778  -1.74708  -2.48478
C     0.38538  -1.04483  -1.63555
C    -0.89083   1.50683  -0.86206
O    -1.45139   2.38268  -1.34670
C    -0.22478   0.82218   1.77785
O    -0.37595   1.24764   2.82314
O     2.60917   1.38263  -1.21083
C     2.01003   0.86932  -0.15647
C     2.92912   0.91557   0.93050
C     2.84465   0.45845   2.23439
H     1.99349  -0.05353   2.64342
C     4.01104   0.68592   2.96825
C     4.99410   1.33499   2.20601
C     5.72240   0.87635   4.49150
H     6.31359   0.81958   5.38389
C     4.46488   0.43068   4.29387
H     3.87195  -0.06371   5.04062
C     2.03926   1.51945  -2.50204
H     0.94459   1.56452  -2.44191
H     2.32889   0.64036  -3.09071
C     2.59893   2.78507  -3.13194
H     3.68445   2.74042  -3.15764
H     2.29841   3.65581  -2.55500
H     2.22203   2.88455  -4.14515
O     0.67921  -1.35083   0.66063
