54

Re    0.00000   0.00000   0.00000
I    -1.58916  -2.16792   0.73743
N     0.72486   0.13326   2.24516
N     1.91741  -1.54513   0.03419
C     0.93138   1.31457   2.82064
C     1.42241   1.45416   4.10616
C     1.71537   0.31438   4.83649
C     1.49587  -0.91758   4.24358
C     0.99971  -0.95706   2.95296
C     1.79252  -2.78249  -0.43924
C     2.80962  -3.71836  -0.37823
C     4.01540  -3.35998   0.20188
C     4.15065  -2.07090   0.68908
C     3.07952  -1.20192   0.58008
C    -0.38201  -0.21022  -1.80657
C    -0.50388  -0.48353  -3.23210
C     0.28640   0.58273  -4.01261
C     0.11739  -1.87040  -3.49431
C    -1.97085  -0.49869  -3.68998
C    -1.45676   1.28023   0.44465
C    -2.55591   2.02568  -0.22856
C    -3.19739   3.05369   0.71089
C    -2.02010   2.73929  -1.47727
C    -3.60980   0.97867  -0.63899
H     0.70616   2.19534   2.23266
H     1.57107   2.44035   4.51620
H     2.10214   0.38412   5.84216
H     1.69915  -1.83969   4.76484
H     0.81320  -1.91565   2.48525
H     0.83815  -3.03798  -0.87770
H     2.64964  -4.70716  -0.77731
H     4.82966  -4.06575   0.27115
H     5.06807  -1.73384   1.14527
H     3.18031  -0.18703   0.94361
H     0.27028   0.34294  -5.07329
H    -0.14740   1.56833  -3.86817
H     1.31824   0.61296  -3.67294
H     0.07543  -2.09330  -4.55802
H     1.15711  -1.88641  -3.17490
H    -0.43549  -2.63660  -2.95589
H    -2.01795  -0.77061  -4.74217
H    -2.53686  -1.22802  -3.11564
H    -2.42480   0.47941  -3.56186
H    -1.47590   1.46753   1.53303
H    -4.00255   3.57525   0.19812
H    -3.61352   2.56933   1.59278
H    -2.46401   3.79215   1.03071
H    -2.84189   3.13862  -2.06627
H    -1.36308   3.55699  -1.19140
H    -1.44611   2.03597  -2.07451
H    -4.39551   1.45394  -1.22077
H    -4.05394   0.52108   0.24168
H    -3.13771   0.19933  -1.23044
O     1.09194   1.18674  -0.34902
