23

Zn    0.00000   0.00000   0.00000
Cl   -0.46548   0.41711  -2.10663
N     2.10287   0.44286   0.01507
N     0.87331  -1.95123   0.17101
C     2.62547   1.62942  -0.24305
C     3.94811   1.79779  -0.62256
C     4.74299   0.67051  -0.75164
C     4.19525  -0.57132  -0.47788
C     2.92586  -3.07094   0.59353
C     2.23989  -4.24015   0.87562
C     0.85709  -4.24477   0.79016
C     0.21649  -3.06650   0.43924
C     2.86073  -0.65131  -0.08368
C     2.20610  -1.93323   0.23178
H     1.95709   2.47312  -0.14259
H     4.33634   2.78322  -0.82231
H     5.77275   0.75418  -1.06498
H     4.78934  -1.46307  -0.59489
H     3.99997  -3.03963   0.67800
H     2.77817  -5.13102   1.16241
H     0.28549  -5.13418   0.99964
H    -0.86091  -3.00922   0.37217
O    -0.70906   0.22356   1.47301
