34

Hg    0.00000   0.00000   0.00000
Cl   -1.43293  -0.66084  -1.65697
O     2.10236  -1.08121  -1.43618
N    -0.62470   2.42198  -0.41863
N     1.84495   1.47315  -0.79073
C     0.19943   3.09898  -1.22784
C    -0.22931   4.25120  -1.88800
H     0.43561   4.80065  -2.53294
C    -1.53191   4.68789  -1.71367
H    -1.88194   5.57229  -2.22442
C    -2.37290   3.97207  -0.87943
H    -3.39464   4.27456  -0.71672
C    -1.86606   2.84221  -0.25289
H    -2.48376   2.25094   0.41066
C     1.57611   2.58153  -1.36325
C     2.54806   3.36390  -2.19573
H     2.13031   3.52834  -3.18735
H     2.75279   4.33264  -1.74277
H     3.48182   2.81730  -2.29889
C     3.10071   0.89859  -0.68020
C     3.21905  -0.48410  -0.94113
C     4.43459  -1.11535  -0.72243
H     4.54352  -2.17131  -0.90879
C     5.51608  -0.39904  -0.23475
H     6.45073  -0.90903  -0.05892
C     5.39922   0.95102   0.04135
H     6.23694   1.50034   0.44196
C     4.19885   1.59807  -0.18511
H     4.08196   2.63914   0.07616
C     2.12393  -2.48028  -1.64847
H     1.12704  -2.73582  -2.00511
H     2.86371  -2.74783  -2.40920
H     2.32836  -3.01759  -0.71816
O     0.74597  -0.64404   1.32334
