43

Hg    0.00000   0.00000   0.00000
Cl   -1.40311   1.62928  -0.75220
N    -1.04044  -2.21857  -0.43519
N     0.86746  -1.06827  -2.08135
C    -0.51207  -2.90762  -1.43117
C    -0.85814  -4.25649  -1.67836
H    -0.39831  -4.77856  -2.50378
C    -1.76298  -4.87628  -0.86370
H    -2.04469  -5.90736  -1.02332
C    -2.33958  -4.15825   0.20333
C    -1.93804  -2.80115   0.37967
C    -3.28068  -4.71592   1.09057
H    -3.57782  -5.74517   0.95202
C    -3.80324  -3.96477   2.10674
H    -4.52267  -4.39597   2.78635
C    -3.41131  -2.62555   2.27863
H    -3.83777  -2.05045   3.08623
C    -2.50104  -2.05336   1.43579
H    -2.19095  -1.01931   1.55516
C     0.45178  -2.25405  -2.30076
H     0.81275  -2.84980  -3.14306
C     1.74298  -0.41067  -2.92686
C     1.80066  -0.63872  -4.30632
H     1.12010  -1.33969  -4.76697
C     2.67697   0.07857  -5.09110
H     2.68740  -0.08273  -6.15885
C     3.52698   1.03535  -4.53388
C     3.45712   1.26785  -3.15809
H     4.11172   1.99840  -2.70775
C     2.57345   0.56705  -2.36941
H     2.52873   0.74205  -1.29859
C     4.45991   1.79013  -5.37868
C     5.15437   1.15734  -6.40833
H     5.01918   0.09759  -6.57035
C     6.03635   1.86709  -7.20111
H     6.57347   1.36250  -7.99104
C     6.23185   3.22113  -6.98538
H     6.91817   3.77548  -7.60791
C     5.54352   3.86093  -5.96798
H     5.68981   4.91751  -5.79799
C     4.66788   3.15195  -5.16734
H     4.11984   3.66012  -4.38761
O     1.07632  -0.44576   1.16848
