65

Pd    0.00000   0.00000   0.00000
P    -1.38417  -1.33476   1.23160
C    -3.22536  -1.04549   0.98508
H    -3.33108   0.04204   0.88048
H    -3.51202  -1.50776   0.03496
C    -1.13169  -0.96448   3.05549
H    -0.04503  -1.04782   3.21731
H    -1.40287   0.08483   3.20332
C    -1.30450  -3.22381   1.22343
H    -1.35328  -3.51910   0.16647
H    -0.32003  -3.51476   1.60191
C    -4.04319  -0.81919   3.28342
H    -3.71256   0.19968   3.07464
H    -5.06625  -0.76217   3.67875
C    -3.15382  -1.42342   4.39587
H    -3.09922  -0.67427   5.20108
H    -3.63407  -2.31336   4.80795
C    -1.38188  -3.14037   4.16693
H    -1.49131  -3.41403   5.22486
H    -0.31472  -3.16750   3.93346
C    -2.11042  -4.22822   3.33922
H    -1.51460  -5.15116   3.43004
H    -3.08795  -4.42561   3.78230
C    -3.64841  -3.92838   1.42438
H    -4.10239  -4.90669   1.62977
H    -3.57125  -3.82676   0.33933
C    -4.61236  -2.84523   1.96810
H    -4.94154  -3.12096   2.97159
H    -5.50074  -2.85416   1.31524
N    -4.06473  -1.51871   2.03100
N    -1.81996  -1.78852   3.98937
N    -2.31228  -3.92281   1.94630
P     1.38401  -1.33478  -1.23177
C     3.22522  -1.04554  -0.98538
H     3.33092   0.04200  -0.88071
H     3.51189  -1.50785  -0.03529
C     1.13158  -0.96451  -3.05567
H     0.04491  -1.04789  -3.21743
H     1.40271   0.08482  -3.20347
C     1.30448  -3.22384  -1.22370
H     1.35332  -3.51915  -0.16675
H     0.32000  -3.51483  -1.60213
C     4.04303  -0.81916  -3.28373
H     3.71235   0.19969  -3.07490
H     5.06607  -0.76209  -3.67907
C     3.15366  -1.42340  -4.39616
H     3.09903  -0.67424  -5.20136
H     3.63391  -2.31333  -4.80826
C     1.38174  -3.14037  -4.16721
H     1.49113  -3.41402  -5.22514
H     0.31458  -3.16752  -3.93370
C     2.11031  -4.22824  -3.33955
H     1.51448  -5.15116  -3.43033
H     3.08781  -4.42564  -3.78267
C     3.64839  -3.92842  -1.42477
H     4.10236  -4.90672  -1.63025
H     3.57128  -3.82688  -0.33971
C     4.61229  -2.84522  -1.96847
H     4.94147  -3.12091  -2.97197
H     5.50068  -2.85414  -1.31562
N     4.06460  -1.51872  -2.03133
N     1.81981  -1.78851  -3.98964
N     2.31224  -3.92280  -1.94664
Cl    1.24966   1.60754  -1.02599
O    -0.90427   1.16371   0.74200
