68

Ru    0.00000   0.00000   0.00000
P     1.02160   1.99440   0.27276
P    -0.75338  -2.10882   0.26347
O     0.04028  -2.54063   1.65665
O     1.82062   1.72605   1.70407
N     0.95752  -0.41840   1.65908
C     1.72758   0.50611   2.27387
C     0.83664  -1.62712   2.25091
C     1.47599  -1.94902   3.43390
H     1.33897  -2.93285   3.85001
C     2.39645   0.25597   3.45796
H     2.99613   1.03739   3.89339
C     2.46412   2.55928  -0.78944
C     2.27632  -0.99504   4.04676
H     2.79011  -1.21954   4.96613
C    -2.52576  -2.24570   0.89285
C    -0.25831  -3.54869  -0.83259
C    -0.07061   3.42650   0.82845
C    -0.84145  -4.89673  -0.42593
H    -0.65332  -5.09282   0.62778
H    -0.36753  -5.68530  -1.00996
H    -1.91101  -4.94061  -0.61508
C     1.94906   2.56100  -2.22726
H     1.44374   1.61566  -2.43572
H     2.77512   2.67680  -2.92697
H     1.24085   3.36804  -2.39642
C    -0.67280  -3.15626  -2.24928
H    -1.75321  -3.17140  -2.36796
H    -0.23831  -3.84086  -2.97586
H    -0.32089  -2.14584  -2.46701
C    -0.66255   4.09341  -0.40890
H     0.07372   4.71229  -0.91657
H    -1.50160   4.72954  -0.12800
H    -1.02514   3.33510  -1.10514
C    -3.46872  -2.21493  -0.30537
H    -3.16615  -1.42979  -1.00079
H    -4.48759  -2.00906   0.02203
H    -3.47032  -3.16690  -0.83143
C    -2.81426  -3.42045   1.82158
H    -2.90271  -4.35407   1.27572
H    -3.75680  -3.24564   2.34070
H    -2.02915  -3.52637   2.56796
C     3.06196   3.90678  -0.40233
H     2.38698   4.72522  -0.63915
H     3.98468   4.06468  -0.96025
H     3.29806   3.92961   0.65968
C     1.26907  -3.60570  -0.75163
H     1.68708  -2.60757  -0.90170
H     1.66073  -4.26382  -1.52498
H     1.59479  -3.97841   0.21792
C     0.58446   4.43442   1.76712
H     1.14226   3.92728   2.55203
H    -0.18841   5.04307   2.23684
H     1.25730   5.10098   1.23771
C     3.52735   1.46879  -0.63503
H     3.98803   1.50948   0.35057
H     4.30537   1.59601  -1.38545
H     3.07436   0.48378  -0.76983
C    -2.67260  -0.93356   1.67413
H    -1.98939  -0.90492   2.52813
H    -3.68781  -0.81525   2.05249
H    -2.46632  -0.08580   1.00826
C    -1.18994   2.68968   1.57471
H    -1.69001   1.99622   0.88891
H    -1.94086   3.38921   1.94140
H    -0.79461   2.13937   2.43386
H     1.12717  -0.48968  -0.88552
O    -1.02104   0.44684  -1.21668
