68

Ru    0.00000   0.00000   0.00000
Cl    0.12722   1.65701  -1.63434
P     0.18620  -1.57663  -1.65312
P    -0.80467   1.44215   1.59659
N    -1.93296  -0.24579  -0.36604
C    -4.21388   0.27257   0.12986
H    -4.90803   0.80792   0.75486
C    -2.85579   0.38841   0.37940
C    -2.34692  -1.04412  -1.36656
C    -3.68795  -1.20472  -1.67677
H    -3.96174  -1.84861  -2.49497
C    -0.58683   0.84641   3.37078
O    -2.43151   1.12548   1.42114
C    -0.50013  -0.67581   3.21060
H    -1.39903  -1.07283   2.72947
H    -0.39749  -1.16013   4.18109
H     0.38742  -0.92566   2.61995
O    -1.41884  -1.72797  -2.05969
C    -0.84019   3.32275   1.49266
C     0.93291  -1.44536  -3.37276
C    -4.63261  -0.52606  -0.92295
H    -5.68164  -0.62475  -1.14765
C     0.46635  -3.27254  -0.87274
C    -1.73533   1.18227   4.31842
H    -1.69802   2.21271   4.65392
H    -1.67058   0.54455   5.19980
H    -2.69633   1.00349   3.84044
C    -1.38548   4.02509   2.73260
H    -2.37588   3.65185   2.98359
H    -1.47039   5.09075   2.52080
H    -0.72590   3.91177   3.58836
C     2.29395  -0.78472  -3.15151
H     2.16715   0.17903  -2.65902
H     2.79590  -0.62099  -4.10340
H     2.93373  -1.40231  -2.52339
C     0.75795   1.34674   3.89049
H     1.53619   1.15790   3.14968
H     1.02303   0.81805   4.80546
H     0.73569   2.41057   4.11203
C     0.60224   3.74373   1.21447
H     1.25546   3.49174   2.04704
H     0.65594   4.81779   1.04567
H     0.97499   3.23768   0.32438
C     0.03311  -0.53357  -4.21025
H    -0.91012  -1.02582  -4.44027
H     0.53415  -0.29408  -5.14658
H    -0.17373   0.39832  -3.68835
C     1.96204  -3.43499  -0.61786
H     2.50898  -3.60196  -1.54247
H     2.14204  -4.28584   0.03844
H     2.36030  -2.53940  -0.13685
C    -1.73288   3.68900   0.30302
H    -1.44692   3.13333  -0.58840
H    -1.62774   4.75022   0.08467
H    -2.77959   3.48743   0.52591
C     1.09003  -2.77557  -4.10342
H     1.81091  -3.42424  -3.61345
H     1.45486  -2.57847  -5.11121
H     0.13460  -3.28823  -4.18588
C    -0.13028  -4.46352  -1.61754
H    -1.11221  -4.21666  -2.01774
H    -0.24618  -5.29828  -0.92630
H     0.50636  -4.79511  -2.43060
C    -0.24647  -3.12804   0.47787
H     0.13268  -2.23422   0.99639
H    -0.04803  -3.98962   1.11474
H    -1.32850  -3.04378   0.34828
O     1.58226   0.02384   0.46733
