65

C     4.72841   0.71751   0.06511
H     5.59662   0.07336   0.06356
C     3.43839   0.20081   0.03781
H     3.24793  -0.86325   0.01348
C     2.60186   2.31470   0.06835
H     1.75187   2.98441   0.07077
C     3.90124   2.82373   0.09521
C     4.13185   4.30977   0.12593
C     6.07389   5.85041   0.20011
C     5.38709   7.05472   0.19573
H     4.31060   7.04260   0.16192
C     6.08455   8.25088   0.23478
H     5.54318   9.18391   0.23084
C     7.46490   8.24725   0.27854
H     8.01197   9.17722   0.30951
C     8.16626   7.04954   0.28338
H     9.24403   7.06958   0.31807
C     7.48408   5.84515   0.24417
C     9.47315   4.50680   0.28854
H     9.85575   4.98226   1.20192
H     9.91425   5.01016  -0.58251
C     9.82469   3.02744   0.27688
H     9.44310   2.56179  -0.62779
H     9.37960   2.53312   1.13619
H    10.90301   2.90400   0.31370
N     4.95928   2.01710   0.09415
N     2.37625   1.00570   0.04038
N     5.44873   4.60547   0.16282
H     6.08282   3.81139   0.16478
O     3.20675   5.09640   0.11686
O     8.06340   4.60726   0.24408
Cl   -0.91478   2.11525   0.06456
Hg    0.00000   0.00000   0.00000
C    -4.72839  -0.71750  -0.06501
H    -5.59660  -0.07335  -0.06369
C    -3.43837  -0.20081  -0.03768
H    -3.24791   0.86326  -0.01361
C    -2.60183  -2.31469  -0.06858
H    -1.75184  -2.98440  -0.07069
C    -3.90121  -2.82372  -0.09536
C    -4.13183  -4.30976  -0.12581
C    -6.07386  -5.85040  -0.20018
C    -5.38706  -7.05471  -0.19578
H    -4.31057  -7.04259  -0.16192
C    -6.08452  -8.25087  -0.23480
H    -5.54315  -9.18390  -0.23085
C    -7.46487  -8.24724  -0.27856
H    -8.01194  -9.17721  -0.30955
C    -8.16623  -7.04953  -0.28342
H    -9.24400  -7.06957  -0.31812
C    -7.48405  -5.84514  -0.24424
C    -9.47312  -4.50679  -0.28859
H    -9.85573  -4.98225  -1.20196
H    -9.91421  -5.01015   0.58246
C    -9.82466  -3.02743  -0.27693
H    -9.44306  -2.56179   0.62774
H    -9.37957  -2.53311  -1.13624
H   -10.90298  -2.90400  -0.31375
N    -4.95926  -2.01709  -0.09420
N    -2.37622  -1.00569  -0.04043
N    -5.44871  -4.60546  -0.16280
H    -6.08280  -3.81139  -0.16475
O    -3.20672  -5.09639  -0.11690
O    -8.06337  -4.60725  -0.24414
O     0.65472  -1.51384  -0.04624
