34

C    -2.21170  -3.76162  -1.86037
H    -2.71651  -4.62926  -1.46009
C    -1.64613  -2.80439  -1.02759
H    -1.69001  -2.89430   0.04899
C    -0.97216  -1.62869  -2.85497
H    -0.47529  -0.77083  -3.28978
C    -1.54217  -2.59826  -3.68191
C    -1.45872  -2.44855  -5.17718
C    -2.21298  -3.69401  -7.18203
C    -1.69249  -2.85634  -8.15666
H    -1.14664  -1.97803  -7.85564
C    -1.87857  -3.15370  -9.49643
H    -1.47111  -2.49793 -10.24953
C    -2.58219  -4.28415  -9.86420
H    -2.72920  -4.51903 -10.90725
C    -3.10913  -5.13160  -8.89983
H    -3.65525  -6.00837  -9.20935
C    -2.93220  -4.84891  -7.55557
C    -4.14739  -6.77395  -6.80220
H    -3.53732  -7.47676  -7.38522
H    -5.04285  -6.51666  -7.38356
C    -4.54222  -7.39595  -5.47217
H    -5.14330  -6.69628  -4.89773
H    -3.65302  -7.64335  -4.89868
H    -5.11729  -8.30064  -5.64514
N    -2.16077  -3.66047  -3.17539
N    -1.02569  -1.73468  -1.53049
N    -2.07020  -3.46815  -5.81332
H    -2.49585  -4.17694  -5.22279
O    -0.89346  -1.50017  -5.68275
O    -3.40211  -5.60485  -6.51925
Hg    0.00000   0.00000   0.00000
Br   -0.57925  -1.10375   2.09810
O     0.57405   1.05854  -1.12803
