55

Zn    0.00000   0.00000   0.00000
Cl    0.79274   0.92285   1.86390
N    -2.07529   0.34110   0.18445
N    -2.74268  -0.08528   1.27182
N    -2.45981  -2.35908   1.89252
N    -0.55175  -3.08319   0.52754
N     0.31584  -2.06246   0.39135
C    -2.50032   1.80064  -1.76041
H    -2.11046   2.79202  -1.52990
H    -3.35748   1.91382  -2.41943
H    -1.71572   1.24377  -2.26637
C    -2.90114   1.11783  -0.50764
C    -4.13710   1.17426   0.14958
H    -5.00464   1.71916  -0.16088
C    -4.00329   0.39483   1.27996
C    -4.97599   0.08630   2.35473
H    -5.11091  -0.98947   2.45480
H    -5.93206   0.54707   2.12473
H    -4.62649   0.47039   3.31282
C    -2.13438  -0.97899   2.21428
H    -2.54488  -0.76790   3.20466
H    -1.05727  -0.76623   2.21775
C    -1.97967  -2.83828   0.63001
H    -2.23586  -2.10112  -0.13793
H    -2.48982  -3.77787   0.40092
C     2.75172  -1.74625   0.21344
H     2.76706  -1.27726  -0.77027
H     3.64390  -2.35503   0.33165
H     2.75056  -0.95330   0.96007
C     1.53709  -2.58100   0.35377
C     1.44947  -3.97490   0.46179
H     2.26087  -4.67308   0.45444
C     0.10567  -4.26541   0.56538
C    -0.56153  -5.58889   0.66873
H    -1.07701  -5.70468   1.62145
H     0.18906  -6.37027   0.58943
H    -1.28525  -5.72319  -0.13475
C    -1.04038  -3.29591   3.75220
H    -0.25826  -3.65840   3.09035
H    -1.09578  -3.96024   4.61138
H    -0.75371  -2.30509   4.09178
C    -2.39231  -3.27664   3.03260
H    -2.57723  -4.27559   2.61916
C    -3.56350  -2.95935   3.94265
C    -3.43340  -2.28612   5.14987
H    -2.46098  -1.98631   5.50787
C    -4.54961  -1.99731   5.91831
H    -4.43015  -1.47451   6.85563
C    -5.81006  -2.37522   5.49215
H    -6.67751  -2.15065   6.09410
C    -5.95148  -3.04735   4.28953
H    -6.93087  -3.34932   3.94913
C    -4.83664  -3.33324   3.52283
H    -4.94954  -3.85482   2.58292
O     0.52085   0.16606  -1.55680
