43

Ru    0.00000   0.00000   0.00000
Br    0.00001  -0.00000  -2.43048
S     2.25443   0.43602   0.00010
O     2.86642  -0.89610   0.00012
C     3.04271   1.32828  -1.37022
H     2.74950   0.85315  -2.30090
H     2.69679   2.35386  -1.33649
H     4.11447   1.25450  -1.23032
S    -2.25442  -0.43602   0.00012
S    -0.43602   2.25443   0.00011
S     0.43603  -2.25442   0.00011
C     3.04270   1.32828   1.37044
O    -2.86642   0.89610   0.00011
C    -3.04269  -1.32828   1.37045
C    -3.04270  -1.32827  -1.37021
O     0.89611   2.86642   0.00011
C    -1.32827   3.04270  -1.37022
C    -1.32827   3.04269   1.37045
O    -0.89610  -2.86642   0.00011
C     1.32828  -3.04269   1.37045
C     1.32828  -3.04270  -1.37022
H     2.74947   0.85318   2.30113
H     2.69678   2.35385   1.33672
H     4.11446   1.25449   1.23057
H    -2.74946  -0.85316   2.30113
H    -2.69678  -2.35386   1.33671
H    -4.11445  -1.25449   1.23057
H    -2.74949  -0.85317  -2.30090
H    -2.69678  -2.35384  -1.33650
H    -4.11447  -1.25450  -1.23033
H    -0.85315   2.74950  -2.30090
H    -2.35385   2.69678  -1.33649
H    -1.25449   4.11447  -1.23033
H    -0.85317   2.74947   2.30113
H    -2.35385   2.69678   1.33672
H    -1.25448   4.11446   1.23057
H     0.85317  -2.74947   2.30113
H     2.35386  -2.69678   1.33672
H     1.25449  -4.11445   1.23057
H     0.85316  -2.74949  -2.30090
H     2.35386  -2.69678  -1.33649
H     1.25450  -4.11447  -1.23033
O     0.00001   0.00000   1.65000
