50

Rh    0.00000   0.00000   0.00000
P     0.30578   2.04604   0.93842
N     0.04425   2.18899   2.63567
N    -0.17202   3.58486   0.33562
N     1.98979   2.31709   1.02986
N     0.52082   3.41392   3.20548
N     2.39982   3.52586   1.67082
N     0.33608   4.67113   1.12708
C     0.20181  -1.14017   1.82219
C    -0.53617  -2.46266   1.78289
C    -1.49359  -2.56100   0.58091
C    -1.01579  -1.79388  -0.62869
C     0.27000  -1.82719  -1.13682
C     1.36970  -2.70688  -0.58605
C     2.22471  -1.97323   0.46381
C     1.45253  -0.93735   1.24859
C    -1.24469   1.79662   3.17125
C    -1.48121   3.87209  -0.21087
C     2.77308   2.01128  -0.15183
C     1.96695   3.44406   3.05689
C     1.78313   4.68658   1.03425
C    -0.05650   4.57012   2.52416
H    -0.03796  -0.51866   2.67905
H     0.18960  -3.27665   1.76277
H    -1.11625  -2.57285   2.70147
H    -1.64517  -3.60956   0.30196
H    -2.46895  -2.16048   0.87015
H    -1.81816  -1.48155  -1.29760
H     0.40774  -1.51415  -2.17165
H     2.01545  -3.02281  -1.40779
H     0.92662  -3.60757  -0.15956
H     2.66456  -2.69479   1.16133
H     3.05338  -1.46982  -0.04122
H     2.08600  -0.17745   1.70445
H    -1.67023   1.03781   2.51152
H    -1.10710   1.38646   4.17412
H    -1.95197   2.62927   3.23728
H    -1.40527   4.77177  -0.82220
H    -2.24597   4.03110   0.55751
H    -1.76501   3.02991  -0.83778
H     3.80514   1.82449   0.14907
H     2.34405   1.11022  -0.60628
H     2.75963   2.80884  -0.90047
H     2.35305   4.31302   3.59666
H     2.37064   2.52423   3.48624
H     2.15812   5.59005   1.52298
H     2.05980   4.70248  -0.02221
H     0.27728   5.47323   3.04184
H    -1.14675   4.51444   2.58187
O    -0.55481   0.77561  -1.34652
