29

Re    0.00000   0.00000   0.00000
N     0.43622  -1.59128  -1.54759
N     1.17372  -1.27852  -2.62217
H     1.63144  -0.36827  -2.66714
N     1.26626  -1.08070   1.15581
C    -1.60251  -0.85763   0.68223
O    -2.57178  -1.30302   1.10562
C    -1.00404   1.02178  -1.32377
O    -1.51449   1.62897  -2.14889
C    -0.13271   1.44176   1.30731
O    -0.13805   2.31144   2.04988
C     2.20761  -1.55464   1.61256
C     3.37693  -2.13281   2.19359
H     3.41269  -1.89389   3.25675
H     4.25989  -1.72072   1.70302
H     3.36225  -3.21534   2.06515
C     0.07127  -2.86254  -1.69229
C     0.60307  -3.36150  -2.88803
H     0.48323  -4.35214  -3.27540
C     1.31049  -2.31956  -3.45627
C    -0.77619  -3.58903  -0.71134
H    -0.64588  -4.66158  -0.83120
H    -1.82721  -3.34874  -0.87158
H    -0.51840  -3.30711   0.30847
C     2.08642  -2.22490  -4.71589
H     1.54232  -1.63203  -5.45103
H     2.25546  -3.21590  -5.12692
H     3.04552  -1.74173  -4.53714
O     1.37385   0.73033  -0.54924
