53

C     1.02488  -1.57854   0.53642
C     1.91947  -3.59836   0.76040
H     2.11735  -4.62449   0.52792
C     2.38668  -2.82428   1.78394
C     0.33709  -3.23221  -1.15731
H    -0.70657  -3.40543  -0.86494
H     0.76748  -4.16827  -1.52273
C     0.41564  -2.15102  -2.21008
C     1.59833  -1.95249  -2.91169
H     2.44593  -2.59708  -2.72552
C     1.70386  -0.92243  -3.82996
H     2.63328  -0.76489  -4.35469
C     0.62581  -0.08587  -4.06067
H     0.71260   0.72306  -4.77017
C    -0.56269  -0.27987  -3.37534
H    -1.41025   0.35945  -3.58331
C    -0.67160  -1.30170  -2.43745
H    -1.62555  -1.50954  -1.95513
C     2.01991  -0.43718   2.47185
H     1.11766   0.19799   2.44708
H     2.87647   0.14461   2.11717
H     2.20684  -0.77240   3.49189
C     3.26404  -3.12198   2.83570
C     4.01388  -3.33036   3.76202
C     4.89928  -5.45854   5.75137
H     3.87335  -5.62454   6.06602
H     5.54496  -5.70924   6.58820
H     5.11351  -6.15881   4.94948
C     6.94955  -3.38973   4.57081
H     7.19323  -4.06946   3.75975
H     7.67068  -3.55488   5.36624
H     7.09142  -2.37787   4.20319
C     4.72292  -2.42537   6.56772
H     4.85064  -1.39886   6.23669
H     5.35270  -2.56871   7.44106
H     3.69089  -2.54254   6.88499
C    -0.63408   2.80025   0.28593
H     0.32020   2.73787   0.80512
C    -1.35033   3.98408   0.27308
H    -0.96755   4.84745   0.79368
C    -2.55218   4.03359  -0.41482
H    -3.13377   4.94231  -0.44771
C    -2.99363   2.88491  -1.05215
H    -3.92753   2.86884  -1.59127
C    -2.22068   1.73995  -0.97969
H    -2.55563   0.81706  -1.43990
N     1.08626  -2.81559   0.01177
N     1.80800  -1.58053   1.62178
N    -1.05758   1.69958  -0.33451
Si    5.16702  -3.65991   5.18549
Br    2.06900   1.00544  -0.84242
Pd    0.00000   0.00000   0.00000
O    -1.30040  -0.67038   0.76293
