51

Au    0.00000   0.00000   0.00000
Br   -0.38168  -2.07497  10.72905
N     2.16294  -1.55564   4.16198
N     2.26789  -0.94476   1.95739
N     2.78329  -0.89980  -0.12184
N     1.64534  -1.58206   5.34697
N     0.00357  -0.99360   6.87669
N    -1.11926  -0.30299   7.16993
C     1.78314  -0.63292   0.72710
C     3.56258  -1.41008   1.85404
H     4.11075  -1.71437   2.71960
C     3.88452  -1.37418   0.54374
H     4.78696  -1.63995   0.03302
C     2.68550  -0.72104  -1.52951
C     2.23982  -1.78155  -2.31731
C     2.13332  -1.58127  -3.68422
H     1.78052  -2.39007  -4.30691
C     2.45695  -0.36314  -4.26644
C     2.90364   0.67038  -3.45420
H     3.15417   1.62312  -3.89683
C     3.02449   0.51267  -2.08285
C     1.86326  -3.08791  -1.68822
H     2.67754  -3.48123  -1.07977
H     1.61273  -3.82000  -2.45035
H     0.99544  -2.95602  -1.04059
C     2.29482  -0.15796  -5.73941
H     2.44242  -1.08886  -6.28133
H     2.99617   0.58576  -6.10944
H     1.28535   0.19690  -5.94804
C     3.48192   1.63698  -1.20464
H     2.67787   1.93956  -0.53266
H     3.76880   2.49632  -1.80364
H     4.33350   1.33671  -0.59407
C     1.59724  -0.87234   3.17977
C     0.42510  -0.12086   3.37152
H    -0.00859   0.44906   2.56461
C    -0.13247  -0.15044   4.62305
H    -1.02929   0.38760   4.88083
C     0.52452  -0.92184   5.60273
C     0.46229  -1.69835   7.95902
C    -0.43195  -1.41995   8.96576
C    -1.40579  -0.54135   8.42586
C     1.66554  -2.55547   7.96537
H     1.77673  -3.01492   8.94484
H     2.55334  -1.96911   7.73603
H     1.58616  -3.33058   7.20564
C    -2.57498   0.03966   9.12343
H    -3.12904   0.67737   8.44179
H    -2.24586   0.62281   9.98285
H    -3.22497  -0.75528   9.48759
O    -1.43391   0.50549  -0.64099
