45

Pt    0.00000   0.00000   0.00000
Cl    0.79412  -1.94102   1.09082
Cl   -1.69933   0.13682   1.62327
Cl    1.90321  -0.10455  -1.41873
P     1.57497   1.41298   0.89247
C     0.84096   2.32153   2.29156
C     1.45054   2.41713   3.53858
H     2.38130   1.90451   3.73576
C     0.86222   3.17491   4.53612
H     1.33598   3.23884   5.50478
C    -0.32593   3.84433   4.29750
H    -0.78484   4.42501   5.08384
C    -0.92170   3.77101   3.04867
H    -1.84388   4.29752   2.85542
C    -0.34071   3.01766   2.04649
H    -0.80440   2.95866   1.07200
C     2.27052   2.79212  -0.06584
C     3.12261   3.61622   0.67064
H     3.31651   3.39605   1.71222
C     3.72171   4.70590   0.07020
H     4.38527   5.33636   0.64334
C     3.46790   4.98825  -1.26328
H     3.93404   5.84255  -1.73115
C     2.61668   4.17532  -1.99083
H     2.41487   4.39379  -3.02841
C     2.01697   3.07559  -1.39935
H     1.35575   2.44759  -1.97355
C     2.97929   0.49115   1.55211
C     2.79811  -0.29956   2.68566
H     1.82596  -0.35029   3.15569
C     3.85759  -1.03482   3.18314
H     3.71681  -1.65297   4.05693
C     5.09105  -0.99097   2.55232
H     5.91408  -1.57364   2.93882
C     5.26744  -0.21281   1.41963
H     6.22535  -0.18938   0.92190
C     4.21399   0.52636   0.91284
H     4.33965   1.11889   0.01801
N    -1.32096  -1.32298  -1.02873
C    -2.25968  -1.97773  -0.97497
C    -3.42593  -2.79042  -0.91833
H    -3.86459  -2.69472   0.07570
H    -3.15776  -3.83068  -1.10068
H    -4.14362  -2.45685  -1.66730
O    -0.68721   1.26132  -0.81198
