30

Ni    0.00000   0.00000   0.00000
O    -0.54477   0.56064   1.86751
H    -1.31027   1.14417   1.75466
H    -0.80296  -0.22119   2.37447
Cl   -1.12053   1.66647  -0.75962
N     0.34640  -0.55581  -1.69859
C    -0.57770  -1.26993  -2.36192
N    -0.42374  -1.67929  -3.60510
C     0.69390  -1.37160  -4.23973
H     0.77159  -1.72222  -5.25956
C     1.70469  -0.64689  -3.63426
H     2.60997  -0.40252  -4.16210
C     1.49559  -0.24436  -2.31660
C     2.48977   0.52132  -1.54360
N     2.09861   0.90576  -0.32657
C     2.94439   1.59693   0.43186
N     4.16896   1.94011   0.05558
C     4.57120   1.56278  -1.14345
H     5.57650   1.85416  -1.41877
C     3.76620   0.83554  -2.00781
H     4.12508   0.53299  -2.97609
C    -1.83821  -1.61508  -1.65888
H    -2.36072  -0.69344  -1.38517
H    -1.60165  -2.16242  -0.74124
H    -2.46786  -2.21984  -2.30388
C     2.47119   2.00525   1.77749
H     3.28483   2.43674   2.35069
H     2.05486   1.13747   2.28684
H     1.66816   2.73279   1.66489
O     0.52535  -1.44722   0.59336
