45

C     0.13367   0.21610   2.63949
C     0.18770  -0.72125   3.65981
H    -0.69269  -1.26319   3.96546
C     1.39715  -0.98412   4.28574
H     1.43321  -1.72626   5.06892
C     2.54283  -0.30615   3.91407
H     3.48242  -0.52267   4.39953
C     2.47829   0.66283   2.92203
H     3.36493   1.21110   2.64071
C     1.28100   0.93528   2.28281
H     1.22536   1.73588   1.54316
C    -2.29831  -1.01310   1.88030
H    -2.66787  -1.13285   2.89985
H    -3.15773  -0.87493   1.21831
C    -1.44119  -2.15554   1.41960
C    -1.70583  -3.45566   1.81258
H    -2.53296  -3.68732   2.46612
C    -0.90806  -4.50444   1.35534
C     0.16621  -4.23642   0.51690
H     0.80358  -5.02753   0.15271
C     0.43756  -2.92387   0.14410
C    -0.36156  -1.87425   0.58150
C     1.61553  -2.59277  -0.72076
H     1.80527  -3.34106  -1.49074
H     2.51963  -2.46210  -0.11958
C     0.10783  -1.42612  -2.72473
C    -1.15850  -0.85574  -2.67558
H    -1.39802  -0.09238  -1.91933
C    -2.10902  -1.23132  -3.60989
H    -3.09322  -0.78932  -3.57564
C    -1.80165  -2.16725  -4.58377
H    -2.54823  -2.46077  -5.30611
C    -0.53192  -2.71730  -4.63898
H    -0.28330  -3.43434  -5.40700
C     0.42837  -2.34047  -3.71681
H     1.42557  -2.75142  -3.77183
C    -0.51305  -6.85297   1.36040
H    -0.54619  -6.96251   0.27118
H    -0.97600  -7.72340   1.82260
H     0.52989  -6.78303   1.68721
O    -1.26642  -5.74767   1.79193
Pd    0.00000   0.00000   0.00000
S    -1.39129   0.58220   1.75610
S     1.37408  -0.96010  -1.54198
O     0.19800   1.52290  -0.60337
