58

Ta    0.00000   0.00000   0.00000
Si   -0.67956  -0.74811   3.39583
Si   -0.86162   3.27910   1.06081
C     1.41237  -0.14700  -2.37943
C     1.82117   0.82270  -1.37025
C     2.83457   0.15208  -0.56890
C     2.94021  -1.15703  -1.00992
C     2.07048  -1.33629  -2.13032
C     0.47135   0.14158  -3.50824
H    -0.22515   0.93686  -3.24066
H    -0.10165  -0.74660  -3.77151
H     1.02649   0.45804  -4.39410
C     1.88290   2.29913  -1.66115
H     2.01051   2.86948  -0.74479
H     0.97061   2.63551  -2.14823
H     2.72608   2.51266  -2.32104
C     3.68444   0.83999   0.45474
H     3.14252   1.66126   0.92052
H     4.57958   1.25083  -0.01724
H     4.00740   0.15126   1.23403
C     3.81323  -2.23096  -0.44384
H     3.24178  -3.14247  -0.26592
H     4.26037  -1.91542   0.49587
H     4.62005  -2.47299  -1.13747
C     1.85965  -2.62092  -2.86343
H     2.67572  -3.31523  -2.67891
H     1.78723  -2.44620  -3.93586
H     0.92827  -3.09270  -2.53801
C     0.69811  -0.56096   2.09109
H     1.48040   0.09128   2.48338
H     1.16451  -1.53865   1.93430
C    -2.40574  -0.66489   2.57919
H    -3.19436  -0.82124   3.30925
H    -2.51457  -1.42978   1.81444
H    -2.57163   0.29906   2.10519
C    -0.51831   0.63362   4.70750
H    -1.35510   0.61349   5.39811
H    -0.48952   1.61571   4.24811
H     0.38874   0.51616   5.29218
C    -0.51118  -2.44407   4.27279
H    -1.27633  -2.56668   5.03275
H     0.45320  -2.54786   4.76089
H    -0.61415  -3.26574   3.57035
C    -1.06944   1.72458   0.03306
H    -2.00471   1.78950  -0.52502
C    -2.28125   3.47159   2.33750
H    -2.17379   4.38835   2.90951
H    -2.30566   2.64398   3.03841
H    -3.24553   3.50828   1.84089
C     0.80335   3.29824   2.00716
H     0.71189   3.82523   2.95135
H     1.57866   3.79915   1.43681
H     1.13851   2.28854   2.21975
C    -0.90829   4.84103  -0.05392
H    -0.78034   5.74570   0.53269
H    -1.85655   4.92090  -0.57534
H    -0.12353   4.82091  -0.80318
O    -0.81470  -1.30120  -0.60468
