66

Pt    0.00000   0.00000   0.00000
Cl    2.35192   0.06690  -0.10884
P    -4.17335  -2.19099  -0.87616
O    -4.34323  -3.62610   1.75344
O    -5.35522  -1.86203   2.69943
C    -2.05554  -0.03551   0.14154
H    -2.49603  -0.28160  -0.84603
C    -2.50997  -1.14409   1.08627
H    -1.95463  -2.06024   0.84574
C    -2.27497  -0.84230   2.56457
H    -2.79498   0.07015   2.84895
H    -2.69771  -1.65208   3.16836
C    -0.78384  -0.76744   2.91036
H    -0.69258  -0.47547   3.96356
H    -0.36938  -1.77741   2.82668
C     0.11576   0.15064   2.11345
H     1.16203  -0.00500   2.37597
C    -0.19223   1.39752   1.56511
H     0.63270   2.10219   1.46154
C    -1.57340   2.02127   1.58888
H    -1.48538   3.08825   1.37710
H    -1.98635   1.93254   2.59643
C    -2.50927   1.37546   0.54355
H    -2.48011   1.99032  -0.35929
H    -3.54100   1.39514   0.92193
C    -4.01734  -1.44703   0.80887
H    -4.59492  -0.51878   0.86576
C    -4.57751  -2.44208   1.78570
C    -5.88721  -2.71730   3.70479
H    -6.52767  -2.09562   4.32422
H    -5.08047  -3.14843   4.30004
H    -6.45794  -3.52666   3.24516
C    -5.58390  -3.33104  -0.76856
C    -5.49614  -4.66189  -1.15047
H    -4.55761  -5.05941  -1.50870
C    -6.61218  -5.47592  -1.05471
H    -6.54365  -6.51339  -1.34471
C    -7.80960  -4.96479  -0.58392
H    -8.67553  -5.60443  -0.50483
C    -7.90062  -3.63133  -0.21385
H    -8.83596  -3.23213   0.14917
C    -6.79208  -2.81242  -0.30927
H    -6.85694  -1.76919  -0.02700
C    -2.73043  -3.10934  -1.42401
C    -2.10270  -2.80573  -2.62778
H    -2.44522  -1.98616  -3.23902
C    -1.01622  -3.56523  -3.03144
H    -0.52089  -3.32309  -3.95744
C    -0.54143  -4.58636  -2.23013
H     0.32249  -5.15512  -2.53831
C    -1.15934  -4.87421  -1.01939
H    -0.77818  -5.66442  -0.39013
C    -2.25734  -4.14513  -0.61188
H    -2.75061  -4.36501   0.32473
C    -4.75019  -1.03105  -2.13797
C    -5.08226  -1.60454  -3.36513
H    -4.97815  -2.67338  -3.50028
C    -5.53778  -0.80813  -4.39769
H    -5.78339  -1.25159  -5.35059
C    -5.67535   0.55853  -4.20835
H    -6.02615   1.18163  -5.01665
C    -5.36243   1.12486  -2.98408
H    -5.47145   2.18841  -2.83636
C    -4.89913   0.33524  -1.94557
H    -4.64188   0.79026  -1.00288
O    -0.07284  -0.54733  -1.55487
