39

Pd    0.00000   0.00000   0.00000
N     0.18288   1.96249  -0.50696
N     0.58267   0.67505   1.81421
N     0.02006  -1.82262   0.62827
C    -0.00984   2.50019  -1.71302
H    -0.42669   1.83538  -2.46193
C     0.28783   3.82053  -1.99188
H     0.11292   4.21557  -2.97933
C     0.81083   4.61694  -0.98248
H     1.05532   5.65244  -1.16393
C     1.01259   4.05607   0.26545
H     1.41669   4.64064   1.07788
C     0.68727   2.72016   0.47529
C     0.87570   2.08854   1.83002
H     0.21173   2.61823   2.53345
H     1.91259   2.26571   2.16046
C     0.44385  -0.00508   2.94298
C     0.63345   0.57068   4.23147
H     0.90375   1.61297   4.30440
C     0.47402  -0.14537   5.38247
H     0.61639   0.34395   6.33547
C     0.13526  -1.50642   5.34926
H     0.01392  -2.05525   6.26975
C    -0.02422  -2.11751   4.14081
H    -0.26963  -3.16576   4.06947
C     0.11680  -1.41712   2.91983
N    -0.00385  -2.19602   1.84045
C     0.09926  -2.86659  -0.30888
C    -0.61061  -4.05309  -0.14975
H    -1.26408  -4.16233   0.70232
C    -0.49094  -5.05170  -1.09807
H    -1.05632  -5.96487  -0.98658
C     0.34449  -4.88264  -2.18979
H     0.42909  -5.66371  -2.93038
C     1.07335  -3.71141  -2.33427
H     1.73024  -3.58455  -3.18136
C     0.95755  -2.70383  -1.39818
H     1.52855  -1.77594  -1.48648
O    -0.77507  -0.37381  -1.40785
