31

Cd    0.00000   0.00000   0.00000
I     2.60795   0.49200   0.77942
I     0.04463  -2.46848  -1.26101
C     3.17415   2.53831  -4.10129
H     4.25293   2.51779  -4.10866
C     2.48375   3.65049  -4.55423
H     3.01210   4.52525  -4.90876
C     0.46555   2.69274  -4.15579
H    -0.60904   2.80791  -4.17516
C     1.04695   1.51665  -3.70384
H     0.42881   0.69706  -3.35929
C     4.72561  -0.81930  -1.74512
H     5.55250  -0.77067  -1.05384
C     4.21641   0.31512  -2.32647
H     4.64732   1.27204  -2.08242
C     2.57433  -1.04597  -3.40198
H     1.72172  -1.18291  -4.04758
C     3.14116  -2.14575  -2.80270
H     2.74337  -3.13599  -2.96065
C     2.43965   1.43181  -3.67234
C     3.09170   0.22972  -3.15611
C     4.68357  -3.18740  -1.26182
H     4.52776  -4.07372  -1.87980
H     5.75320  -3.06196  -1.08176
C     3.93870  -3.33447   0.06135
H     4.31570  -4.19941   0.59755
H     2.87540  -3.47290  -0.11574
H     4.07733  -2.45083   0.67891
N     1.16532   3.72772  -4.58162
N     4.19307  -2.02575  -1.98254
O    -1.01050   1.18682  -0.54114
