54

Re    0.00000   0.00000   0.00000
Cl   -1.61801   0.48712   1.60606
P     1.65658   0.38662   1.75656
P    -0.89098  -2.16547   0.58435
P    -1.60649   0.49059  -1.74807
C     1.26009  -0.63260  -1.23061
C     2.21644  -1.18947  -2.08178
C     2.21988  -0.92977  -3.46517
H     1.45532  -0.28397  -3.87123
C     3.18322  -1.48162  -4.28091
H     3.17277  -1.27144  -5.34105
C     4.16963  -2.30122  -3.75065
H     4.92402  -2.72821  -4.39447
C     4.18476  -2.56694  -2.38803
H     4.95387  -3.20354  -1.97357
C     3.22558  -2.02512  -1.56210
H     3.22642  -2.22389  -0.49968
C     1.19570   1.65809   2.97796
H     0.94459   2.57907   2.45393
H     2.03248   1.82599   3.65684
H     0.32379   1.32075   3.53778
C     3.23031   1.01962   1.07781
H     3.68222   0.24448   0.46133
H     3.90077   1.29280   1.89218
H     3.02297   1.88599   0.45335
C     2.29617  -0.92482   2.87471
H     1.51851  -1.23209   3.56985
H     3.14414  -0.53549   3.43714
H     2.61550  -1.78180   2.28546
C    -0.61696  -2.75375   2.29269
H     0.43549  -2.99414   2.42293
H    -1.22341  -3.64098   2.47503
H    -0.90549  -1.96528   2.98553
C    -0.27820  -3.59493  -0.38636
H    -0.51626  -3.43511  -1.43558
H    -0.72347  -4.52508  -0.03714
H     0.80398  -3.63847  -0.28870
C    -2.70327  -2.40011   0.46173
H    -3.19022  -1.71781   1.15595
H    -2.94919  -3.42986   0.72162
H    -3.04338  -2.18758  -0.54944
C    -3.27186   1.02253  -1.22786
H    -3.15769   1.88410  -0.56984
H    -3.76802   0.22903  -0.67245
H    -3.86284   1.29963  -2.10111
C    -1.11732   1.87187  -2.83646
H    -0.10273   1.69568  -3.18999
H    -1.12070   2.79780  -2.26482
H    -1.80954   1.94243  -3.67552
C    -1.94314  -0.80040  -3.00798
H    -2.62973  -0.41682  -3.76136
H    -2.36587  -1.69012  -2.54893
H    -0.99566  -1.07001  -3.47038
O     0.34399   1.60894  -0.12446
