55

Pd    0.00000   0.00000   0.00000
Cl   -1.67151  -1.58257  -0.07338
C     1.35176   1.40800  -0.04905
C    -1.31258   1.36858   0.58509
C     3.09164   2.25436  -1.58380
N     2.22257   1.29623  -1.02791
H     2.30707   0.32204  -1.38684
C     2.60661   3.48670  -2.03123
C     3.50330   4.37107  -2.61746
H     3.14271   5.32799  -2.96465
C     4.83563   4.03990  -2.77152
H     5.51664   4.74183  -3.22812
C     5.29443   2.80141  -2.35576
H     6.33241   2.53704  -2.49205
C     4.43301   1.89115  -1.76655
C     4.90699   0.54744  -1.30759
H     4.43851  -0.24598  -1.89031
H     4.64813   0.37562  -0.26339
H     5.98448   0.46365  -1.41899
C     1.15796   3.85588  -1.92414
H     0.52068   2.97021  -1.91506
H     0.87225   4.48278  -2.76587
H     0.97407   4.41723  -1.00719
C    -3.69583   1.95988   0.61368
N    -2.59355   1.10563   0.38869
H    -2.77005   0.10592   0.15593
C    -3.83107   3.15041  -0.10692
C    -4.94508   3.94461   0.13616
H    -5.06139   4.86735  -0.41290
C    -5.90351   3.56090   1.05481
H    -6.76292   4.18986   1.23054
C    -5.77216   2.36347   1.73793
H    -6.53159   2.05919   2.44252
C    -4.67365   1.54596   1.52608
C    -4.50641   0.24496   2.24524
H    -5.28423   0.11550   2.99254
H    -3.53406   0.19212   2.73401
H    -4.55836  -0.58651   1.54241
C    -2.82529   3.55536  -1.14427
H    -2.08128   4.23790  -0.73073
H    -3.32468   4.06794  -1.96303
H    -2.30311   2.68647  -1.54338
C     1.39919   2.55318   0.84277
N    -1.02871   2.55795   1.14674
H    -1.81101   3.10970   1.49759
C     0.22541   3.07910   1.42231
C     0.30496   4.18055   2.27126
H    -0.60516   4.59272   2.68490
C     1.52661   4.73009   2.60458
H     1.57061   5.57586   3.27316
C     2.69328   4.18053   2.09178
H     3.65253   4.58862   2.36926
C     2.62639   3.11691   1.21788
H     3.53852   2.69166   0.82996
O     1.10463  -1.09587  -0.54896
