51

C     2.50222  -0.58938  -0.01252
H     2.96897  -1.17121  -0.79752
C     2.47595   0.81450   0.07086
H     2.91739   1.50156  -0.63950
C     1.85660   1.17383   1.28457
H     1.77307   2.18389   1.66687
C     1.50989  -0.01700   1.96523
H     1.12476  -0.09695   2.97509
C     1.90739  -1.10920   1.15741
H     1.85107  -2.15575   1.43289
Zr    0.00000   0.00000   0.00000
Cl    0.11239  -1.82168  -1.50490
B    -4.15472   0.11309   1.79284
H    -5.23644   0.13334   2.28700
S    -1.20433  -1.60696   1.82917
S    -2.47550  -0.16728  -1.15182
S    -1.29466   1.96578   1.41454
N    -3.87681  -1.30636   1.26657
N    -2.94538  -3.13597   0.49529
N    -4.12092   1.12210   0.63315
N    -3.68510   2.22142  -1.21391
N    -3.12333   0.51396   2.87093
N    -1.47217   1.37129   4.02867
C    -2.72083  -1.98888   1.16833
C    -4.83178  -2.03471   0.60760
H    -5.83895  -1.68308   0.53334
C    -4.26078  -3.16458   0.12875
H    -4.67546  -3.97216  -0.43758
C    -1.93030  -4.09982   0.17500
H    -1.45127  -4.44766   1.09180
H    -1.16884  -3.63506  -0.46141
H    -2.38495  -4.93715  -0.34757
C    -3.44088   1.08146  -0.53137
C    -4.77507   2.32525   0.68029
H    -5.37410   2.59545   1.52417
C    -4.50927   3.00631  -0.45849
H    -4.83150   3.97311  -0.78506
C    -3.13297   2.53109  -2.50279
H    -2.04412   2.43267  -2.46887
H    -3.40280   3.54906  -2.77186
H    -3.51655   1.83390  -3.25000
C    -1.99461   1.24336   2.78425
C    -3.28360   0.15614   4.18284
H    -4.11114  -0.44655   4.49162
C    -2.26921   0.68274   4.90382
H    -2.04670   0.62893   5.94899
C    -0.30699   2.13069   4.38021
H     0.07963   2.59700   3.47439
H     0.45624   1.48407   4.81579
H    -0.56944   2.90703   5.10046
O     0.10280   1.16556  -1.16336
