32

Pt    0.00000   0.00000   0.00000
Cl    1.37633  -1.01634   1.48584
N     0.24524   1.66485   1.06829
C     0.01425   1.70593   2.37858
H    -0.43395   0.82513   2.81907
C     0.34206   2.80664   3.14863
H     0.14239   2.80065   4.20806
C     0.93569   3.89893   2.53475
H     1.21503   4.77060   3.10713
C     1.16722   3.84283   1.16994
H     1.63134   4.66872   0.65543
C     0.81273   2.71011   0.45070
Si    1.08981   2.49372  -1.43134
C     1.48433   4.18687  -2.20087
H     2.43578   4.55941  -1.83740
H     0.72762   4.93255  -1.97791
H     1.56599   4.10759  -3.27933
C     2.42991   1.19786  -1.80319
H     2.53347   1.03612  -2.87229
H     2.18772   0.23414  -1.34542
H     3.39563   1.51086  -1.41663
C    -0.63848   1.92300  -2.02549
C    -1.33074   2.49218  -3.08502
H    -0.88560   3.31272  -3.62414
C    -2.57335   1.99834  -3.44760
H    -3.11809   2.42670  -4.27526
C    -3.09763   0.93681  -2.72603
H    -4.05944   0.51524  -2.97010
C    -2.35894   0.41123  -1.68203
H    -2.72138  -0.42831  -1.10375
N    -1.16519   0.89508  -1.34585
O    -0.15461  -1.37370  -0.90086
