45

Hg    0.00000   0.00000   0.00000
O    -1.85265  -0.33096   2.15727
C    -3.10976   0.22878   1.85467
C    -1.92542  -1.67543   2.57278
H    -3.75232   0.20724   2.74862
H    -3.59522  -0.33306   1.04451
H    -2.54716  -1.75289   3.47821
H    -2.35948  -2.29957   1.77921
Cl    1.18502   1.29872   1.43731
O     1.85303   0.33076  -2.15739
O     2.34070  -1.64532  -0.11151
O    -2.34032   1.64512   0.11138
O    -0.15946   2.33554  -1.64808
O     0.15984  -2.33574   1.64795
C    -2.89373   1.66725   1.40705
C    -0.51280  -2.15575   2.87284
C     3.11014  -0.22898  -1.85480
C     1.92580   1.67523  -2.57291
C     2.09981  -2.92990   0.41483
C     2.89411  -1.66746  -1.40719
C    -2.09943   2.92969  -0.41495
C     0.51318   2.15555  -2.87297
C    -1.49158   2.76869  -1.80089
C     1.49196  -2.76889   1.80077
H    -3.85553   2.20308   1.39276
H    -2.21004   2.16610   2.10807
H    -0.55025  -3.10987   3.42124
H     0.00217  -1.40367   3.48674
H     3.75270  -0.20744  -2.74875
H     3.59560   0.33285  -1.04464
H     2.54754   1.75268  -3.47834
H     2.35986   2.29937  -1.77934
H     3.04649  -3.48808   0.48364
H     1.39813  -3.48197  -0.22593
H     3.85591  -2.20329  -1.39289
H     2.21042  -2.16631  -2.10820
H    -3.04610   3.48788  -0.48377
H    -1.39776   3.48176   0.22580
H     0.55063   3.10967  -3.42137
H    -0.00180   1.40347  -3.48687
H    -1.51170   3.73268  -2.33257
H    -2.07328   2.02855  -2.36794
H     1.51207  -3.73289   2.33244
H     2.07366  -2.02876   2.36781
O    -0.86072  -0.94381  -1.04445
