47

Ni    0.00000   0.00000   0.00000
Cl    1.40527  -1.71204  -0.31227
C    -0.22881   0.58841  -2.63572
O     0.70560   0.81578  -1.58566
C     1.35757   2.02929  -1.55033
C     1.15349   2.99698  -2.52974
C     1.86211   4.18606  -2.52195
C     2.79089   4.43334  -1.53253
C     2.98040   3.48705  -0.54157
C     2.28701   2.28613  -0.52107
C     2.51438   1.35520   0.64993
N     1.25807   1.23044   1.38512
C     1.19955   0.35273   2.54668
C    -0.25574  -0.13569   2.69756
N    -0.62644  -0.90412   1.50753
C    -2.03900  -1.30741   1.40473
C    -2.20624  -2.41901   0.39474
C    -2.65282  -3.66177   0.81600
C    -2.78334  -4.72359  -0.06251
C    -2.44774  -4.54996  -1.39113
C    -1.99946  -3.32067  -1.84160
C    -1.88390  -2.24869  -0.96531
O    -1.47595  -1.00437  -1.35769
C    -0.77488  -0.84419  -2.57917
H     0.91748   2.15723   1.63364
H    -0.06169  -1.76241   1.50483
H    -1.06949   1.28819  -2.53712
H     0.26933   0.71795  -3.60514
H     0.42601   2.84790  -3.30966
H     1.67594   4.91559  -3.29528
H     3.35045   5.35552  -1.51876
H     3.69123   3.68439   0.24793
H     3.32888   1.75534   1.27479
H     2.80752   0.35898   0.29989
H     1.85169  -0.50699   2.36440
H     1.52054   0.84533   3.47599
H    -0.35704  -0.74968   3.60278
H    -0.92171   0.72865   2.77322
H    -2.38795  -1.66240   2.38396
H    -2.62876  -0.42956   1.11933
H    -2.90042  -3.80219   1.85860
H    -3.13307  -5.68018   0.29328
H    -2.53136  -5.37134  -2.08647
H    -1.73904  -3.20328  -2.88134
H     0.05352  -1.56294  -2.63375
H    -1.44791  -0.98114  -3.43612
O    -1.11279   1.21111   0.13196
