36

Zn    0.00000   0.00000   0.00000
Cl    2.20867  -0.06707  -0.08630
N    -0.45807   1.18610  -1.70690
N    -0.49350   1.87434   0.92081
C    -0.20300  -0.53186  -3.32949
H    -0.10732  -1.24623  -2.52353
C    -0.13385  -0.91259  -4.64004
H     0.02082  -1.94992  -4.89430
C    -0.26174   0.03550  -5.67087
H    -0.20267  -0.29119  -6.69811
C    -0.45756   1.35757  -5.38125
H    -0.55563   2.09052  -6.16858
C    -0.53119   1.78849  -4.04193
C    -0.40013   0.82440  -2.99849
C    -0.72496   3.13325  -3.66924
H    -0.82830   3.88665  -4.43686
C    -0.77643   3.46584  -2.34297
H    -0.91970   4.48687  -2.02474
C    -0.63285   2.44982  -1.37513
C    -0.66731   2.76905   0.04450
H    -0.84394   3.81513   0.31143
C    -0.52040   2.16840   2.31782
H    -0.67663   3.24635   2.47325
C     0.79850   1.69530   2.96595
H     1.60258   1.63225   2.23427
H     1.08663   2.40585   3.74176
C     0.46286   0.34181   3.58287
H     0.45428  -0.42768   2.80601
H     1.17547   0.05012   4.35189
C    -0.94805   0.55234   4.11665
H    -0.91656   1.15271   5.02822
H    -1.46083  -0.38233   4.33207
C    -1.63258   1.32774   2.99099
H    -2.44563   1.95931   3.34551
H    -2.03594   0.62653   2.25930
O    -1.15224  -1.15405   0.25101
