54

Rh    0.00000   0.00000   0.00000
P     1.17800   1.88769  -0.35656
P    -1.14140  -1.94478  -0.20621
O     0.44119   0.01535   2.94731
O     0.42925   4.40351  -1.17417
O     1.26630   3.24374   1.92717
O     3.06751   3.14293  -1.81716
O    -3.76543  -2.23320  -0.69948
O    -2.08289  -4.24637   0.86481
O    -0.29564  -4.19451  -1.56786
C     0.25885  -0.01420   1.81188
C     0.00457   3.17111  -0.82297
C    -0.66502   5.13638  -1.41121
H    -0.51708   6.15480  -1.71455
C    -1.79796   4.40450  -1.21359
H    -2.80837   4.73888  -1.33100
C    -1.36390   3.11896  -0.82497
H    -1.95954   2.25466  -0.58479
C     2.06593   2.75683   0.95207
C     2.06197   3.76363   2.86889
H     1.58959   4.21232   3.72079
C     3.37241   3.61423   2.53021
H     4.22493   3.93448   3.09340
C     3.37983   2.94802   1.28407
H     4.23556   2.65960   0.70839
C     2.40933   1.97052  -1.66684
C     3.92430   2.98324  -2.83101
H     4.53368   3.82529  -3.09700
C     3.84176   1.72371  -3.34469
H     4.40890   1.32107  -4.15870
C     2.85435   1.05871  -2.58573
H     2.49838   0.05558  -2.70581
C    -2.55454  -2.16364  -1.30012
C    -4.67661  -2.35719  -1.67189
H    -5.70400  -2.43827  -1.37416
C    -4.08080  -2.36190  -2.89687
H    -4.56440  -2.44911  -3.84829
C    -2.69533  -2.22869  -2.65976
H    -1.90810  -2.17571  -3.38310
C    -1.70820  -2.98147   1.16210
C    -2.46687  -4.82261   2.00794
H    -2.79898  -5.84153   1.95860
C    -2.35067  -3.95546   3.05237
H    -2.58733  -4.14732   4.07880
C    -1.85539  -2.75206   2.50334
H    -1.63885  -1.84030   3.02131
C     0.06401  -3.03280  -0.98696
C     0.82492  -4.76234  -2.02868
H     0.72650  -5.70199  -2.53670
C     1.91509  -3.99107  -1.75296
H     2.93361  -4.20223  -2.00714
C     1.42109  -2.85978  -1.06901
H     1.96791  -2.01123  -0.68662
O    -0.24195   0.04218  -1.63162
