41

Rh    0.00000   0.00000   0.00000
N     0.32159  -1.95724   0.17999
C     1.10867  -2.39569   1.13742
H     1.69530  -1.65752   1.67575
C     1.21756  -3.75450   1.50429
N     2.11045  -4.12170   2.48318
H     1.97745  -5.03332   2.88973
H     2.38013  -3.40474   3.13692
C     0.47156  -4.67766   0.79806
H     0.52829  -5.73003   1.03531
C    -0.38508  -4.23627  -0.22306
C    -1.20228  -5.11341  -0.96798
H    -1.14689  -6.17158  -0.75759
C    -2.05304  -4.63359  -1.92355
H    -2.67853  -5.31283  -2.48360
C    -2.13144  -3.25581  -2.18013
H    -2.82171  -2.89363  -2.92685
C    -1.34327  -2.37920  -1.48687
H    -1.40410  -1.30454  -1.65574
C    -0.45169  -2.84490  -0.50147
C     0.04927   2.11279   0.36129
H    -0.30612   2.26184   1.38036
C    -0.89638   1.82854  -0.61089
H    -1.94299   1.79741  -0.30664
C    -0.69561   2.03920  -2.09538
H    -0.75151   3.11048  -2.31684
H    -1.52531   1.55965  -2.62080
C     0.63325   1.45899  -2.61921
H     0.49791   1.15496  -3.65919
H     1.41254   2.22241  -2.60704
C     1.10013   0.26525  -1.81195
H     1.12198  -0.67303  -2.36604
C     1.95649   0.37194  -0.71639
H     2.60847  -0.47908  -0.51064
C     2.48946   1.67485  -0.16287
H     2.96982   1.46222   0.79561
H     3.26503   2.06343  -0.83275
C     1.39446   2.73593   0.05271
H     1.29805   3.36988  -0.82974
H     1.68741   3.38126   0.88304
O    -1.18415  -0.24880   1.12177
