39

V     0.00000   0.00000   0.00000
Cl   -2.20690  -0.05004  -0.54320
Cl    2.04452  -0.68604   1.08869
N    -0.61983   0.88184   1.70298
N    -0.43807  -1.54615   1.12334
N     0.17362  -1.52470  -1.30427
C    -0.87908   3.11700   0.72298
H    -1.34479   2.60640  -0.12178
H     0.11827   3.44163   0.42295
H    -1.46103   3.99917   0.98193
C    -0.80984   2.19329   1.89476
C    -1.01722   2.71511   3.16858
H    -1.13476   3.78121   3.28689
C    -1.09253   1.87550   4.26741
H    -1.23945   2.27121   5.26023
C    -1.02329   0.51394   4.04614
H    -1.13633  -0.18389   4.85908
C    -0.79824   0.05319   2.75231
C    -0.74001  -1.35684   2.40207
C    -0.95364  -2.43589   3.26416
H    -1.21550  -2.27741   4.29695
C    -0.82468  -3.71846   2.76017
H    -0.98615  -4.57223   3.40100
C    -0.47720  -3.90048   1.43300
H    -0.36557  -4.89220   1.02758
C    -0.27897  -2.77017   0.63502
C     0.12170  -2.75917  -0.76254
C     0.42055  -3.91157  -1.48349
H     0.38979  -4.87546  -1.00331
C     0.76068  -3.79581  -2.81697
H     1.02320  -4.66344  -3.40187
C     0.70661  -2.53707  -3.39219
H     0.89867  -2.40991  -4.44638
C     0.38371  -1.42282  -2.62289
C     0.19898  -0.10921  -3.30942
H    -0.61519   0.44285  -2.83646
H    -0.03200  -0.27059  -4.36040
H     1.10632   0.49340  -3.24757
O     0.87454   1.19756  -0.72356
