54

Zr    0.00000   0.00000   0.00000
Cl   -1.38866   1.13161  -1.52299
Si    1.07142   2.16473   2.16255
C     1.88566   1.42604   0.61724
C     1.49693   1.78240  -0.70910
H     1.11855   2.75677  -1.00299
C     1.73902   0.72221  -1.60587
C     2.33763  -0.33982  -0.85331
C     2.43311   0.09806   0.52367
C     3.10215  -0.72264   1.45043
H     3.30557  -0.35838   2.44674
C     3.56523  -1.95272   1.05241
H     4.08179  -2.58405   1.75976
C     3.40746  -2.40251  -0.26932
H     3.78520  -3.37735  -0.53784
C     2.82511  -1.60852  -1.22492
H     2.75712  -1.93909  -2.25260
C     1.50614   0.72246  -3.09121
H     1.09106  -0.24723  -3.39386
H     0.77655   1.49724  -3.34605
C     2.80890   0.98249  -3.85425
H     2.62939   0.97293  -4.92648
H     3.54817   0.22089  -3.61749
H     3.21733   1.95231  -3.57874
C    -0.33631   0.89686   2.24861
C    -1.56405   1.05328   1.53766
H    -2.02920   2.00704   1.30752
C    -2.13374  -0.20042   1.23644
C    -1.27601  -1.20068   1.79903
C    -0.16451  -0.52059   2.43064
C     0.76380  -1.27961   3.16694
H     1.51937  -0.78365   3.75845
C     0.64878  -2.64788   3.19223
H     1.35764  -3.23365   3.75804
C    -0.39232  -3.30829   2.51831
H    -0.44286  -4.38558   2.56325
C    -1.36183  -2.60626   1.84748
H    -2.19132  -3.11830   1.37865
C    -3.44152  -0.45637   0.54027
H    -3.71852   0.42188  -0.05090
H    -3.32753  -1.30506  -0.14586
C    -4.55405  -0.75928   1.54901
H    -5.49238  -0.94935   1.03385
H    -4.69106   0.08534   2.22062
H    -4.30052  -1.63238   2.14568
C     2.17503   2.30306   3.70825
H     2.98452   3.00262   3.53005
H     2.61663   1.35818   4.00171
H     1.59854   2.67168   4.54977
C     0.33378   3.86522   1.71135
H     1.11801   4.58906   1.51867
H    -0.27214   4.25257   2.52311
H    -0.29307   3.80817   0.82488
O    -0.22294  -1.44136  -0.77153
