69

Ru    0.00000   0.00000   0.00000
Cl   -1.14946   1.23891   1.53100
O    -0.32801  -1.67545   1.47359
N    -0.86291   1.76528  -2.06946
N     1.21614   2.23536  -1.71619
C     0.21062   1.45544  -1.33199
C     0.84843   3.16389  -2.78263
H     1.47932   3.00113  -3.66147
H     0.99115   4.19682  -2.45018
C    -0.62253   2.82302  -3.03894
H    -1.29137   3.66984  -2.85596
H    -0.80045   2.45651  -4.05512
C    -2.12659   1.13088  -1.90828
C    -3.07026   1.68811  -1.03428
C    -4.26043   1.00767  -0.82873
H    -4.98387   1.41572  -0.13730
C    -4.54139  -0.18336  -1.48637
C    -3.63525  -0.65709  -2.42199
H    -3.86427  -1.55173  -2.98379
C    -2.43136  -0.00679  -2.66413
C    -2.85254   3.02754  -0.39725
H    -3.32767   3.06451   0.57888
H    -3.29871   3.80139  -1.02579
H    -1.79570   3.24276  -0.26603
C    -5.82369  -0.90941  -1.21142
H    -5.87288  -1.84031  -1.77079
H    -6.67588  -0.29052  -1.49079
H    -5.91230  -1.13412  -0.14920
C    -1.54691  -0.47131  -3.78176
H    -1.56107  -1.55527  -3.85445
H    -0.51664  -0.15755  -3.63980
H    -1.91779  -0.06049  -4.72332
C     2.53542   2.25525  -1.19741
C     2.82688   3.07662  -0.10895
C     4.13526   3.12260   0.35131
H     4.37349   3.75295   1.19608
C     5.13586   2.36538  -0.23986
C     4.80702   1.52549  -1.29667
H     5.57544   0.90765  -1.73878
C     3.51253   1.45120  -1.78585
C     1.72985   3.82626   0.58026
H     2.10792   4.33790   1.46063
H     0.95301   3.12343   0.88884
H     1.27642   4.56456  -0.07971
C     6.54958   2.42973   0.25383
H     6.62034   3.02521   1.16024
H     7.19172   2.87702  -0.50455
H     6.92766   1.42983   0.46007
C     3.14058   0.48858  -2.86946
H     3.99296  -0.12432  -3.14790
H     2.78365   1.00710  -3.75822
H     2.34094  -0.16325  -2.51270
C     1.69603  -0.06079   0.84591
H     2.57239   0.55396   0.63436
C    -1.48461  -2.43618   1.72467
H    -2.23824  -2.09795   1.00993
H    -1.85284  -2.26725   2.74252
H    -1.29411  -3.50360   1.56766
C     1.86580  -1.00894   1.88669
C     3.06120  -1.14158   2.61164
H     3.88912  -0.49563   2.35828
C     3.17607  -2.06917   3.62457
H     4.10104  -2.15757   4.17430
C     2.10446  -2.89091   3.94176
H     2.19518  -3.61644   4.73601
C     0.90679  -2.79394   3.24699
H     0.08749  -3.44439   3.51121
C     0.78383  -1.86516   2.22875
O     0.17703  -1.22353  -1.09276
