40

Au    0.00000   0.00000   0.00000
N     1.27138   2.37196  -1.25816
N     1.42202   0.72943  -2.63709
O     2.81790   5.24416  -0.32582
C     0.94253   1.08052  -1.42436
C     1.95714   2.83518  -2.34311
H     2.31471   3.84163  -2.40346
C     2.05030   1.80272  -3.21271
H     2.51140   1.77591  -4.17558
C     1.01103   3.16400  -0.07900
H     0.20167   2.68339   0.47551
H     0.70825   4.16578  -0.39243
C     2.24668   3.24872   0.78355
C     2.51906   2.26106   1.71477
H     1.82097   1.44381   1.82926
C     3.66111   2.31591   2.49505
H     3.85877   1.54107   3.21867
C     4.53846   3.37272   2.34124
H     5.43207   3.42945   2.94454
C     4.28536   4.36999   1.41425
H     4.98671   5.18299   1.31231
C     3.14370   4.31463   0.62420
C     3.61385   6.39959  -0.43795
H     3.66144   6.94799   0.50746
H     3.12671   7.02085  -1.18866
H     4.62829   6.15902  -0.77244
C     1.27121  -0.59855  -3.24376
C     1.97255  -1.63248  -2.35916
H     3.02264  -1.37551  -2.23457
H     1.90595  -2.61526  -2.81705
H     1.50736  -1.67598  -1.37716
C    -0.22100  -0.91396  -3.37621
H    -0.69120  -0.96065  -2.39679
H    -0.35362  -1.87266  -3.86983
H    -0.71978  -0.14623  -3.96501
C     1.90769  -0.62341  -4.63510
H     1.43373   0.09484  -5.30040
H     1.77291  -1.61337  -5.06243
H     2.97586  -0.42435  -4.58524
O    -0.73888  -0.86744   1.19336
