55

C     2.02304  -1.49926  -2.09686
H     2.08003  -0.59129  -2.70803
C     0.67942  -2.20361  -2.32310
H     0.58651  -2.46900  -3.38277
H     0.72779  -3.13277  -1.74944
C    -0.57363  -1.43175  -1.92757
C    -0.61356  -0.04316  -2.06507
H    -1.56453   0.46888  -2.14301
H     0.19627   0.43320  -2.61124
C     3.18315  -2.41536  -2.46756
H     3.13000  -3.35044  -1.91320
H     4.13458  -1.93705  -2.24469
H     3.15817  -2.64665  -3.53164
C     3.60360  -0.17725   0.00450
C     4.25472   0.56981  -0.97383
H     3.82812   0.66255  -1.96290
C     5.44608   1.20705  -0.67897
H     5.95058   1.78170  -1.44194
C     5.98576   1.11890   0.59381
H     6.91417   1.62137   0.82117
C     5.32580   0.40043   1.57809
H     5.73564   0.34804   2.57564
C     4.13661  -0.24249   1.29054
H     3.60064  -0.78019   2.05944
C     2.01852  -2.52222   0.58476
C     3.16921  -3.28218   0.76982
H     4.12227  -2.91268   0.41822
C     3.09244  -4.50037   1.42173
H     3.98760  -5.08612   1.57088
C     1.87386  -4.96674   1.88743
H     1.82084  -5.91607   2.39926
C     0.72560  -4.21050   1.71071
H    -0.22088  -4.56821   2.08761
C     0.79576  -2.99104   1.06292
H    -0.10120  -2.37028   0.94979
C    -1.83985  -3.56907  -1.93390
H    -0.89758  -4.09751  -2.05962
H    -2.39393  -4.06237  -1.12905
C    -2.65611  -3.64062  -3.23077
H    -2.79730  -4.68450  -3.51510
H    -2.09953  -3.14300  -4.02850
C    -4.00665  -2.95243  -3.04352
H    -4.55155  -2.93688  -3.98885
H    -4.60203  -3.51842  -2.32343
C    -3.80217  -1.53077  -2.52300
H    -3.30768  -0.92706  -3.28674
H    -4.76145  -1.06799  -2.29278
C    -2.93828  -1.57259  -1.26365
H    -3.42842  -2.20038  -0.51291
H    -2.80288  -0.58357  -0.81823
N    -1.64942  -2.18274  -1.55630
P     1.99715  -0.94190  -0.31260
Cl    0.88275   0.27068   2.08143
Pd    0.00000   0.00000   0.00000
O    -1.40846   0.74148   0.43468
