42

Zn    0.00000   0.00000   0.00000
Cl   -1.79162   1.18532  -0.70099
Cl   -0.80011  -2.24177  -0.00808
N    -1.40762  -2.84564   2.85308
H    -1.14275  -3.09293   1.88817
H    -0.87779  -3.18846   3.63926
N    -2.70110  -1.16094   1.92823
H    -2.43400  -1.58973   1.01389
N    -3.44117   0.77332   3.03036
N    -1.70860  -1.17304   5.45418
N    -2.69600   0.82836   5.34578
N    -0.66817   2.19278   3.60940
N     0.57329   1.20646   5.46606
N     1.84140  -0.69572   4.81240
N     1.98189  -1.49282   2.65032
H     2.72175  -2.08623   2.99164
H     1.99556  -1.24840   1.65754
N    -0.07792   0.75903   2.01617
C    -2.07776  -1.71930   2.99987
C    -3.34297   0.02958   1.97480
H    -3.76451   0.39288   1.04975
C    -2.84932   0.26187   4.12513
C    -2.21377  -0.99156   4.19775
C    -2.00533  -0.08263   6.09549
H    -1.73965   0.09939   7.11725
C    -3.02674   2.18594   5.69412
H    -3.43589   2.19659   6.70764
H    -3.79109   2.52250   4.98924
C    -1.79472   3.09561   5.63123
H    -2.06066   4.05769   6.06948
H    -0.98394   2.65501   6.21506
C    -1.28600   3.35162   4.21160
H    -2.10435   3.66084   3.55578
H    -0.54399   4.15739   4.25122
C     0.18541   1.29176   4.19134
C     1.37666   0.17720   5.68148
H     1.70534   0.04550   6.70320
C     1.48790  -0.61074   3.52218
C     0.56281   0.40150   3.17676
C    -0.77703   1.82373   2.31307
H    -1.39038   2.34232   1.60205
O     1.63656  -0.14176  -0.15517
