25

Pd    0.00000   0.00000   0.00000
Cl    1.39263   1.57587  -0.68227
N     1.17835  -1.53186  -0.57895
O     4.30896  -2.34016  -2.12290
H     4.73795  -3.17882  -2.33657
C     3.11669  -2.54090  -1.53577
C     0.65476  -2.75307  -0.32277
C     2.36393  -1.42632  -1.16292
H     2.73722  -0.42442  -1.34514
C     1.35669  -3.90710  -0.67088
H     0.94229  -4.88079  -0.46875
C     2.59119  -3.80826  -1.27922
H     3.14209  -4.69741  -1.55255
N    -1.17842  -1.53186   0.57879
O    -4.30902  -2.34017   2.12276
H    -4.73802  -3.17883   2.33641
C    -3.11675  -2.54090   1.53561
C    -0.65483  -2.75307   0.32261
C    -2.36399  -1.42632   1.16275
H    -2.73729  -0.42442   1.34497
C    -1.35675  -3.90710   0.67071
H    -0.94236  -4.88080   0.46860
C    -2.59126  -3.80826   1.27905
H    -3.14215  -4.69742   1.55240
O    -1.03935   1.17607   0.50903
