27

C     1.55480   0.05122  -4.56821
H     2.43115  -0.31063  -5.08632
C     1.38791  -0.13076  -3.20006
H     2.13344  -0.64293  -2.60802
C    -0.60945   0.94675  -3.30383
H    -1.50064   1.32240  -2.81860
C    -0.43411   1.12510  -4.67502
C    -1.48024   1.84147  -5.48500
C    -1.76895   2.52245  -7.85290
C    -1.18296   2.52381  -9.12092
C    -1.81430   3.10770 -10.20135
H    -1.34180   3.09730 -11.17128
C    -3.05194   3.70584 -10.03642
H    -3.54092   4.16157 -10.88303
C    -3.64838   3.71295  -8.78722
H    -4.61274   4.17644  -8.64907
C    -3.01695   3.12872  -7.70642
H    -3.47707   3.13225  -6.73224
N     0.65078   0.67576  -5.29829
N     0.30411   0.31972  -2.56881
N    -1.10959   1.93094  -6.78390
H    -0.20638   1.50493  -6.99276
O    -2.49865   2.26052  -4.97983
Hg    0.00000   0.00000   0.00000
I     2.17065  -1.37116   0.45584
I     0.71656   1.62203  -9.43779
O    -1.42293   0.80718   0.21503
