35

Zn    0.00000   0.00000   0.00000
Cl    1.54491  -1.38803   0.91406
O    -0.71571   1.74180  -1.66366
O     1.25645   2.03004   0.67206
N     0.35561   1.57115  -3.66792
N     0.85006   0.16092  -1.85889
N     2.50343  -1.39907  -1.94062
N     0.21583   3.27013   2.27631
N    -0.70532   1.28448   1.43217
N    -2.75720   0.52495   2.05284
C    -0.43093   2.64676  -4.22593
C     0.12126   1.17949  -2.34523
C     1.81476  -0.44696  -2.54162
C     2.05955  -0.04967  -3.89666
C     1.30230   0.95053  -4.40240
C     1.29853   4.22655   2.29759
C     0.30172   2.17324   1.41327
C    -1.80568   1.43367   2.16179
C    -1.90345   2.55966   3.04298
C    -0.86997   3.43238   3.06103
H     2.81813  -0.53719  -4.48363
H     1.42118   1.30581  -5.41680
H    -2.77152   2.69802   3.66340
H    -0.86505   4.30567   3.69877
H    -1.17089   2.92933  -3.47856
H    -0.93543   2.31668  -5.13476
H     0.20266   3.50604  -4.45277
H     2.30911  -1.58182  -0.93758
H     3.24952  -1.87499  -2.41668
H     2.07810   3.84877   1.63763
H     0.95733   5.19874   1.93763
H     1.69255   4.33064   3.30925
H    -3.62071   0.62211   2.55757
H    -2.65326  -0.19702   1.31434
O    -1.40407  -0.83819  -0.22029
