24

Hg    0.00000   0.00000   0.00000
C    -1.32622   0.38114  -1.87229
H    -2.30827  -0.04062  -1.66791
C    -0.32023   2.07436  -3.04551
C     0.11124   0.79836  -3.60859
C    -0.50212  -0.21262  -2.93794
C    -0.45139  -1.68135  -3.22735
H     0.57692  -2.03561  -3.28681
H    -0.93438  -1.89661  -4.18121
H    -0.96558  -2.24347  -2.44838
C    -1.19504   1.83885  -2.03196
C     0.11681   3.39082  -3.58497
H    -0.31463   4.20703  -3.01290
H    -0.18717   3.49390  -4.62664
H     1.20252   3.47086  -3.54710
C    -1.97843   2.83467  -1.23314
H    -1.32972   3.60648  -0.82132
H    -2.49633   2.34357  -0.40978
H    -2.72261   3.32430  -1.86252
C     1.02863   0.69242  -4.77571
H     1.24840  -0.34666  -5.00296
H     1.96295   1.21219  -4.56799
H     0.57974   1.15546  -5.65465
O     1.57842   0.46385   0.12619
