29

Au    0.00000   0.00000   0.00000
Cl   -1.34157   0.18298   1.82403
N     1.76684  -2.11510   1.05250
C     1.36632  -0.84693   1.16667
Cl   -1.51203   0.97392  -1.35793
N     2.78196  -2.36304   1.91396
C     2.16021  -0.26149   2.14817
H     2.08016   0.74316   2.50667
C     3.03769  -1.23456   2.60646
C     4.04851  -1.11570   3.65061
C     4.17543  -2.07566   4.65381
H     3.50656  -2.92306   4.68057
C     5.12469  -1.91890   5.64724
H     5.21157  -2.66243   6.42501
C     5.95552  -0.81077   5.64923
H     6.69629  -0.69332   6.42514
C     5.82636   0.15224   4.66104
H     6.46692   1.02072   4.66537
C     4.87507   0.00686   3.66932
H     4.77291   0.75150   2.89498
C     1.28471  -3.11833   0.15087
H     0.32696  -2.79304  -0.24905
H     1.14966  -4.06676   0.67098
H     1.97135  -3.24095  -0.68991
C     3.49934  -3.60378   1.91522
H     4.40981  -3.47753   2.49814
H     3.76994  -3.88071   0.89525
H     2.90406  -4.40622   2.35703
O     1.06929  -0.26975  -1.22733
