21

Au    0.00000   0.00000   0.00000
I     2.07051  -0.09017  -1.57467
S    -1.62223   0.14091   1.75377
S     1.19914   0.38630   2.03455
C    -0.31576   0.40903   2.81708
N    -0.45972   0.63407   4.10647
C    -2.21567  -0.68535   5.25199
H    -2.17002  -1.44079   4.47168
H    -3.24088  -0.61726   5.60422
H    -1.58630  -0.99470   6.08176
C    -1.78148   0.67017   4.70556
H    -1.76718   1.41516   5.50410
H    -2.49099   0.99690   3.94006
C     0.71060   0.80892   4.95026
H     0.39362   1.33692   5.85074
H     1.42929   1.43526   4.41172
C     1.37542  -0.51379   5.31929
H     0.70066  -1.15013   5.88471
H     2.25441  -0.31354   5.92512
H     1.69148  -1.04634   4.42628
O    -1.05995  -0.26025  -1.23745
