41

Hf    0.00000   0.00000   0.00000
C    -2.61327  -0.32483   0.35676
C    -1.98174  -1.51025   0.76964
H    -2.22534  -2.50086   0.41445
C    -1.10709  -1.20986   1.84345
H    -0.61213  -1.93447   2.47552
C    -1.23393   0.17648   2.11650
H    -0.87039   0.67784   3.00193
C    -2.14105   0.72189   1.17903
H    -2.52142   1.73398   1.18275
C    -3.66442  -0.20588  -0.70662
H    -3.35137   0.48090  -1.49387
H    -4.59126   0.17917  -0.28093
H    -3.87073  -1.17803  -1.15027
C     1.66155   2.01408   0.27089
C     2.24673   0.87370  -0.32678
H     2.73493   0.86023  -1.29094
C     2.30599  -0.16055   0.65762
H     2.87343  -1.07567   0.57667
C     1.74958   0.35777   1.84728
H     1.76103  -0.13301   2.80977
C     1.33988   1.68409   1.59945
H     0.97165   2.38147   2.33774
C     1.56044   3.37696  -0.34736
H     2.44580   3.96449  -0.09611
H     0.68598   3.91123   0.02000
H     1.49446   3.30914  -1.43099
C    -0.08435  -1.56410  -1.58887
H    -1.12356  -1.63516  -1.91158
C     0.93699  -1.07607  -2.49158
H     0.76239  -0.36274  -3.28340
C     2.12132  -1.72478  -2.22627
C     1.88829  -2.66202  -1.18706
H     2.63345  -3.32596  -0.78315
C     0.56921  -2.59510  -0.80167
H     0.07820  -3.28226  -0.12793
C     3.43628  -1.51039  -2.90387
H     3.78009  -2.43505  -3.36707
H     4.19837  -1.19621  -2.18934
H     3.34766  -0.75017  -3.67671
O    -0.58474   1.09837  -1.08359
