57

Pt    0.00000   0.00000   0.00000
Br    0.53200  -0.21277  -2.46323
Br   -0.62323   0.38169   2.42839
Br   -0.31830  -2.41843   0.20353
N    -2.10889   0.36697  -0.54328
H    -2.15927   0.12658  -1.55501
O    -3.29066  -1.32144  -2.15100
N     0.08898   2.20827  -0.22540
H     0.00807   2.57753   0.73009
C    -3.52138  -1.53933  -0.97681
C    -2.32263   1.80585  -0.37438
H    -3.24312   2.12030  -0.88061
H    -2.42224   2.02053   0.69537
N    -4.14060  -2.61927  -0.50049
H    -4.22678  -2.75639   0.49468
C    -1.13662   2.57572  -0.94735
H    -1.00332   2.32254  -2.00453
H    -1.31409   3.65249  -0.85713
C     1.29216   2.79392  -0.80393
H     1.32177   2.58508  -1.87697
H     2.17206   2.33609  -0.33891
C    -3.13205  -0.47852   0.06860
H    -4.02719   0.10952   0.30212
H    -2.77520  -0.93848   0.99303
O     0.46693   4.88253   0.05907
N     2.44554   4.89388  -1.04071
H     3.11360   4.34869  -1.56318
C     1.34550   4.30692  -0.55146
C     2.65128   6.96398  -2.31035
C     2.68553   6.32311  -0.94728
H     3.65249   6.49377  -0.46551
H     1.89180   6.72598  -0.31221
C     1.46544   6.97259  -3.03537
H     0.57589   6.54119  -2.59923
C     3.79174   7.52192  -2.86954
H     4.71823   7.51918  -2.31326
C     2.56205   8.09439  -4.84809
H     2.52730   8.53534  -5.83292
C     3.74617   8.08912  -4.13183
H     4.63786   8.52524  -4.55671
C     1.42077   7.53409  -4.29799
H     0.49454   7.53857  -4.85303
C    -4.56540  -3.71562  -1.35365
H    -4.05739  -3.57870  -2.31349
H    -5.64656  -3.64803  -1.52181
C    -2.91541  -5.30185  -0.32783
H    -2.15461  -4.54498  -0.44461
C    -4.21582  -5.04701  -0.74711
C    -5.18317  -6.03069  -0.59334
H    -6.19678  -5.84160  -0.91792
C    -3.55966  -7.49948   0.38645
H    -3.30562  -8.45206   0.82681
C    -4.85553  -7.25342  -0.03343
H    -5.61509  -8.01309   0.07819
C    -2.59089  -6.52088   0.23891
H    -1.57790  -6.70397   0.56266
O     1.59376  -0.14406   0.40208
