55

Pt    0.00000   0.00000   0.00000
Cl    1.58631  -0.08937   1.58403
N    -1.50807   0.58587   1.38045
H    -1.88643  -0.28734   1.76494
N    -1.58163   0.12009  -1.40793
H    -1.64489  -0.76613  -1.91426
O    -3.10055   0.11909  -3.66400
O    -3.12981   0.54618   3.53234
N    -1.97903   1.82618  -4.63618
H    -1.24341   2.50769  -4.53649
C    -4.49721   3.43373  -5.06101
H    -4.69107   2.73992  -4.25559
N    -1.84604   1.93876   4.77122
H    -1.00774   2.49747   4.79864
C    -4.08573   3.89621   5.25333
H    -4.31299   3.35429   4.34652
C    -2.56804   1.20214   0.56966
H    -3.49054   1.31428   1.15110
H    -2.22527   2.19500   0.26115
C    -3.52577   3.12298  -6.00551
C    -2.14386   1.24754   3.65943
C    -2.23430   0.96998  -3.63231
C    -2.83117   0.32746  -0.65673
H    -3.60133   0.77686  -1.29102
H    -3.19852  -0.64653  -0.32305
C    -1.31072   1.13901  -2.42244
H    -0.27080   1.01478  -2.74775
H    -1.43022   2.13714  -1.99384
C    -1.11416   1.38442   2.53971
H    -0.99557   2.43082   2.24815
H    -0.14009   1.01036   2.88382
C    -2.74042   1.84426  -5.87110
H    -3.41520   0.98451  -5.82413
H    -2.06030   1.71961  -6.71876
C    -2.98069   4.00052   7.37598
H    -2.34503   3.55038   8.12511
C    -3.26630   3.30681   6.20899
C    -3.28310   4.01060  -7.04374
H    -2.53050   3.77734  -7.78339
C    -2.68820   1.93945   5.95225
H    -2.10542   1.60125   6.81424
H    -3.48693   1.21808   5.75580
C    -5.21527   4.61138  -5.15530
H    -5.97002   4.84282  -4.41823
C    -4.00596   5.18755  -7.14212
H    -3.81355   5.86916  -7.95728
C    -4.97095   5.49070  -6.19761
H    -5.53375   6.40897  -6.27406
C    -4.61220   5.15726   5.46296
H    -5.25023   5.60590   4.71588
C    -3.51220   5.26121   7.58913
H    -3.28795   5.79087   8.50307
C    -4.32656   5.84211   6.63283
H    -4.73987   6.82569   6.79879
O     1.05742  -0.43487  -1.18964
