22

C     0.10366   0.01919  -2.27555
C     0.33616   1.33155  -1.80693
C    -0.81973   1.76758  -1.14772
C    -1.75750   0.71428  -1.15279
C    -1.19597  -0.34816  -1.89440
V     0.00000   0.00000   0.00000
H     0.77640  -0.56687  -2.88726
H     1.20806   1.93198  -2.02975
H    -1.01046   2.77116  -0.79507
H    -2.78249   0.77271  -0.81013
H    -1.68937  -1.27772  -2.14462
C    -0.10370   0.01944   2.27557
C    -0.33633   1.33173   1.80679
C     0.81955   1.76777   1.14751
C     1.75742   0.71456   1.15277
C     1.19598  -0.34780   1.89457
H    -0.77644  -0.56667   2.88722
H    -1.20828   1.93208   2.02947
H     1.01019   2.77127   0.79468
H     2.78237   0.77295   0.81002
H     1.68937  -1.27738   2.14474
O    -0.00129  -1.65000  -0.00237
