31

Pd    0.00000   0.00000   0.00000
O     1.77558   5.12011  -0.35803
O     1.12162   6.19764   1.48417
H     1.54516   6.95680   1.05284
N     0.01473   1.61639   1.05007
C     0.56011   2.73117   0.57674
H     0.98891   2.70229  -0.42505
C     0.58858   3.91091   1.31454
C     1.22481   5.11285   0.71010
C     0.02332   3.92417   2.58776
H     0.03332   4.82786   3.17612
C    -0.54170   2.75310   3.06726
H    -0.98972   2.71639   4.04734
C    -0.52476   1.62076   2.27139
H    -0.95032   0.67725   2.61298
Cl   -1.71021   0.83558  -1.26695
N    -0.01495  -1.61567  -1.05114
C    -0.56019  -2.73041  -0.57773
H    -0.98886  -2.70145   0.42412
C    -0.58853  -3.91027  -1.31531
C    -1.22467  -5.11211  -0.71062
O    -1.77546  -5.11919   0.35751
O    -1.12151  -6.19703  -1.48451
H    -1.54508  -6.95611  -1.05306
C    -0.02323  -3.92367  -2.58851
H    -0.03320  -4.82746  -3.17672
C     0.54173  -2.75263  -3.06815
H     0.98982  -2.71608  -4.04822
C     0.52465  -1.62013  -2.27248
H     0.95034  -0.67671  -2.61412
O     1.23449  -0.60278   0.91389
