63

Pd    0.00000   0.00000   0.00000
Cl    1.15095  -0.78263   1.83954
O    -2.79833  -5.50155  -3.25020
O    -0.80275  -5.26873  -4.20042
N    -0.31688  -1.79242  -0.75462
C     0.29081  -2.09208  -1.89127
C    -0.15810  -3.13704  -2.71385
C    -1.25304  -3.89113  -2.35497
C    -1.88994  -3.61511  -1.11187
C    -1.36647  -2.54187  -0.33268
C    -1.94211  -2.25285   0.92207
C    -3.00129  -2.98571   1.38326
C    -3.53156  -4.02703   0.61045
C    -2.98665  -4.33949  -0.60585
C    -1.72448  -4.95500  -3.27669
C     1.47813  -1.31037  -2.28760
C     1.60856  -0.83222  -3.59017
C     2.75113  -0.14930  -3.96728
C     3.77981   0.04460  -3.05981
C     3.65859  -0.42819  -1.76229
C     2.51156  -1.09660  -1.36669
H    -1.15300  -5.95609  -4.78896
H     0.36181  -3.33479  -3.63731
H    -1.49931  -1.46526   1.52964
H    -3.42596  -2.76582   2.35064
H    -4.37082  -4.59372   0.98432
H    -3.39139  -5.14467  -1.19609
H     0.80190  -0.97338  -4.29364
H     2.84048   0.22549  -4.97605
H     4.67977   0.55797  -3.36526
H     4.46052  -0.28236  -1.05434
H     2.44648  -1.51347  -0.36667
N     0.31684   1.79249   0.75438
C    -0.29086   2.09218   1.89101
C     0.15808   3.13716   2.71357
C     1.25301   3.89123   2.35465
C     1.88990   3.61518   1.11156
C     1.36643   2.54191   0.33240
C     1.94214   2.25279  -0.92229
C     3.00127   2.98568  -1.38354
C     3.53142   4.02715  -0.61085
C     2.98651   4.33964   0.60544
H     3.39117   5.14492   1.19560
H     4.37057   4.59394  -0.98481
H     3.42594   2.76575  -2.35091
H     1.49940   1.46510  -1.52979
C     1.72443   4.95520   3.27625
O     2.79838   5.50151   3.24989
O     0.80285   5.26877   4.20020
H     1.15321   5.95596   4.78885
H    -0.36181   3.33492   3.63704
C    -1.47808   1.31038   2.28745
C    -1.60831   0.83222   3.59004
C    -2.75078   0.14921   3.96730
C    -3.77954  -0.04480   3.05994
C    -3.65850   0.42796   1.76240
C    -2.51159   1.09648   1.36666
H    -2.44665   1.51331   0.36661
H    -4.46049   0.28202   1.05454
H    -4.67943  -0.55821   3.36552
H    -2.83997  -0.22555   4.97609
H    -0.80158   0.97347   4.29340
O    -0.82310   0.55953  -1.31603
