67

Hg    0.00000   0.00000   0.00000
S     1.28490  -0.85730  -2.15276
S     2.14689   0.11947   1.54722
S    -0.76850  -2.40028   0.81297
B     2.52099  -2.97442   0.19739
H     3.29097  -3.88343   0.25738
N     3.23185  -1.80484  -0.51856
N     3.82594  -0.01468  -1.65312
N     2.13470  -2.59189   1.64321
N     1.51106  -1.63916   3.52688
N     1.29064  -3.45485  -0.60315
N    -0.68150  -3.81938  -1.51015
C     2.81741  -0.88269  -1.40371
C     4.52521  -1.50167  -0.19553
H     5.07377  -2.08997   0.50966
C     4.89433  -0.40304  -0.88764
H     5.82732   0.11519  -0.87613
C     3.77907   1.17175  -2.52064
C     3.52196   0.72633  -3.96230
H     2.57770   0.19580  -4.04055
H     4.32047   0.07047  -4.30442
H     3.48178   1.59705  -4.61046
C     2.68125   2.11620  -2.02181
H     1.69138   1.71249  -2.22290
H     2.75848   3.07405  -2.52822
H     2.78245   2.28018  -0.94923
C     5.11866   1.90768  -2.46090
H     5.93588   1.27584  -2.80219
H     5.32615   2.26506  -1.45494
H     5.06761   2.77077  -3.11949
C     1.90472  -1.41572   2.25100
C     1.86740  -3.57589   2.55384
H     1.96499  -4.61005   2.29833
C     1.48274  -2.99692   3.71106
H     1.19243  -3.45874   4.62846
C     1.11269  -0.63084   4.52038
C     0.67676  -1.32369   5.81253
H     1.48486  -1.91284   6.24083
H    -0.19105  -1.95742   5.64529
H     0.40060  -0.56133   6.53626
C     2.31048   0.27304   4.82250
H     3.13518  -0.31261   5.22464
H     2.02457   1.02368   5.55372
H     2.64884   0.78008   3.92381
C    -0.07165   0.17223   3.97419
H    -0.84622  -0.49993   3.60583
H     0.23654   0.82921   3.16383
H    -0.49393   0.79069   4.76100
C    -0.02856  -3.23057  -0.48074
C     1.47111  -4.19053  -1.74124
H     2.44789  -4.48544  -2.06255
C     0.26433  -4.41560  -2.30275
H     0.02964  -4.94521  -3.19918
C    -2.12527  -3.77313  -1.78572
C    -2.42569  -4.51591  -3.08871
H    -2.12887  -5.56085  -3.02910
H    -1.93261  -4.04166  -3.93410
H    -3.49774  -4.48379  -3.26463
C    -2.87482  -4.45823  -0.64044
H    -2.56508  -5.49808  -0.55328
H    -3.94314  -4.42588  -0.83415
H    -2.68130  -3.95674   0.30312
C    -2.55985  -2.31307  -1.94537
H    -3.57236  -2.26862  -2.33615
H    -1.89653  -1.79483  -2.63751
H    -2.54842  -1.79085  -0.99115
O    -1.06841   1.25420  -0.08935
