33

Pt    0.00000   0.00000   0.00000
S     1.10950  -2.10239   0.26418
S    -1.07395  -0.19502   2.12856
Cl    1.02223   0.25379  -2.03315
C    -2.84268   0.04757   1.72261
H    -3.40194  -0.10469   2.64640
H    -2.95248   1.07352   1.37287
C     2.86870  -1.68021  -0.01923
H     3.44601  -2.58278   0.18513
H     2.96438  -1.39337  -1.06591
C    -0.71799   1.41156   2.93272
H    -1.25107   2.17619   2.36897
H    -1.10523   1.34529   3.95010
C    -3.26173  -0.92599   0.64062
H    -2.68443  -0.72596  -0.26355
H    -4.31655  -0.79523   0.41072
H    -3.09355  -1.95464   0.95172
C     0.74163  -2.97603  -1.30314
H     1.26259  -2.44197  -2.09684
H     1.13617  -3.98734  -1.19830
C     3.27650  -0.53206   0.88078
H     2.68293   0.34844   0.62833
H     4.32640  -0.29387   0.72727
H     3.12090  -0.78009   1.92840
C    -0.75069  -2.97564  -1.56214
H    -1.29229  -3.44572  -0.74441
H    -0.96742  -3.51240  -2.48281
H    -1.09352  -1.94578  -1.67600
C     0.77144   1.68580   2.91166
H     1.32423   0.89526   3.41407
H     0.98151   2.63130   3.40597
H     1.10747   1.75722   1.87594
O    -0.76324   1.44450  -0.23103
