68

Pt    0.00000   0.00000   0.00000
P     0.00488  -2.25588  -0.39551
P    -0.02110   2.25555   0.41891
C     1.41526   0.29872  -1.39884
C     1.08656   0.51849  -2.74087
H     0.04545   0.54438  -3.04147
C     2.05662   0.70474  -3.69833
H     1.79933   0.87718  -4.73358
C     3.41259   0.67309  -3.33968
C     3.75499   0.44566  -2.00118
H     4.80123   0.41733  -1.73459
C     2.76990   0.26057  -1.05602
H     3.06123   0.07613  -0.02804
N     4.46031   0.86350  -4.20965
N     4.17955   0.99162  -5.43689
C     5.15979   1.33309  -6.32560
C     5.13127   0.79125  -7.61810
H     4.42484   0.01285  -7.86022
C     6.04143   1.25616  -8.54463
H     6.06039   0.85655  -9.55071
N     6.93224   2.20588  -8.29519
C     6.95040   2.72780  -7.07831
H     7.69456   3.49733  -6.91423
C     6.10464   2.33580  -6.06041
H     6.13925   2.78799  -5.08095
C     1.14052  -2.89304  -1.70745
H     0.80999  -2.42847  -2.64139
H     2.13461  -2.48949  -1.49526
C     0.31560  -3.33824   1.05574
H    -0.47862  -3.13739   1.77981
H     0.24865  -4.38672   0.75542
C    -1.66815  -2.76629  -0.96264
H    -1.64022  -3.76560  -1.40342
H    -2.31415  -2.79493  -0.08102
C     1.21319  -4.40548  -1.86768
H     1.67659  -4.87199  -1.00184
H     1.81525  -4.65049  -2.74078
H     0.22634  -4.84117  -2.00884
C     1.67049  -3.01158   1.67269
H     1.70799  -1.95197   1.93068
H     2.48246  -3.22331   0.97897
H     1.83096  -3.58847   2.58098
C    -2.19514  -1.73480  -1.95518
H    -2.14147  -0.73633  -1.50547
H    -3.23256  -1.93608  -2.21400
H    -1.60395  -1.73291  -2.86965
C     1.51871   2.68314   1.33027
H     2.34056   2.61477   0.61151
H     1.47895   3.70763   1.70693
C    -1.38122   2.90860   1.47732
H    -2.32118   2.58362   1.02045
H    -1.30655   2.38123   2.43248
C     0.03103   3.40392  -1.01892
H     0.19016   4.42753  -0.67177
H     0.89441   3.11277  -1.62374
C     1.72447   1.68254   2.46307
H     0.97830   1.81625   3.24370
H     2.71177   1.78731   2.90841
H     1.62433   0.66355   2.07301
C    -1.39555   4.41367   1.70652
H    -0.46058   4.76093   2.14071
H    -2.19715   4.66246   2.39921
H    -1.57154   4.95915   0.78246
C    -1.24613   3.28698  -1.84270
H    -1.45626   2.23791  -2.05282
H    -1.14631   3.81421  -2.78918
H    -2.09815   3.70053  -1.30740
O    -1.12628  -0.30876   1.16562
