51

Pd    0.00000   0.00000   0.00000
N     0.31781  -0.94851   1.81500
N     0.21807   0.39212  -2.02429
C     1.16878  -1.91825   1.76677
H     1.38737  -2.52258   2.64782
C     1.78684  -2.18339   0.48923
C     2.72546  -3.14773   0.11974
H     3.13374  -3.82972   0.85219
C     3.12960  -3.22620  -1.20751
H     3.85467  -3.97622  -1.48825
C     2.63216  -2.37445  -2.18633
H     2.96996  -2.46736  -3.20886
C     1.69668  -1.40204  -1.83051
C     1.05669  -0.38228  -2.62735
H     1.28514  -0.25300  -3.68564
C     1.29038  -1.32437  -0.49540
C    -0.47991  -0.70357   3.00929
H    -0.68327   0.37819   3.03279
C     0.24940  -1.06435   4.28477
C     1.36830  -0.30680   4.62250
H     1.67244   0.50238   3.97262
C     2.08527  -0.57669   5.77221
H     2.94903   0.02215   6.02024
C     1.69090  -1.60926   6.60757
H     2.24464  -1.81880   7.51059
C     0.58126  -2.36722   6.28036
H     0.26669  -3.17308   6.92727
C    -0.13459  -2.10035   5.12446
H    -0.99747  -2.70408   4.89051
C    -1.81618  -1.42135   2.78811
H    -2.50898  -1.18680   3.59110
H    -1.67213  -2.49891   2.72528
H    -2.24901  -1.07696   1.84400
C    -0.36481   1.54573  -2.69804
H    -1.36041   1.69575  -2.25405
C    -0.54762   1.32163  -4.18262
C    -1.58705   0.48761  -4.58520
H    -2.23077   0.04799  -3.83584
C    -1.80391   0.22130  -5.92376
H    -2.61789  -0.42451  -6.21813
C    -0.98059   0.78671  -6.88386
H    -1.14952   0.58414  -7.93100
C     0.05684   1.61435  -6.49363
H     0.70367   2.05756  -7.23678
C     0.27537   1.87984  -5.15163
H     1.08936   2.53031  -4.87052
C     0.49802   2.75379  -2.31615
H     0.07020   3.66525  -2.72364
H     1.51904   2.63359  -2.67440
H     0.52500   2.83717  -1.22608
O    -1.11471   1.13976   0.42527
