55

Ir    0.00000   0.00000   0.00000
O    -1.81493  -1.76145   1.64385
N     0.60712   2.41161  -1.66207
C     1.15144   1.59334  -0.75693
O     1.05636  -1.93962  -2.04364
N     2.31015   1.90655  -0.16491
C     1.28213   3.55882  -2.24818
H     0.75981   3.83542  -3.16337
H     2.29041   3.24814  -2.53787
C     1.34748   4.76416  -1.31237
H     0.37362   5.24970  -1.24504
H     2.05542   5.48607  -1.72576
C     1.79534   4.31535   0.07577
H     2.16694   5.17172   0.64024
H     0.95077   3.89635   0.62705
C     2.87967   3.24631  -0.01775
H     3.58840   3.47262  -0.82213
H     3.44222   3.24756   0.91558
C    -0.72154   2.11487  -2.18768
H    -1.09317   1.24640  -1.61543
C    -1.70982   3.25548  -1.94954
H    -1.43105   4.13897  -2.52837
H    -1.70332   3.51712  -0.88995
C    -3.10715   2.80236  -2.36480
H    -3.41571   1.96683  -1.73327
H    -3.81815   3.61652  -2.21256
C    -3.11956   2.36631  -3.82722
H    -2.87384   3.22093  -4.46272
H    -4.11860   2.02400  -4.10238
C    -2.10665   1.24968  -4.06625
H    -2.11102   0.96171  -5.11915
H    -2.38418   0.37294  -3.47746
C    -0.70623   1.70417  -3.66187
H     0.00972   0.89184  -3.80374
H    -0.40794   2.53767  -4.30168
C     2.99563   0.87581   0.61510
H     2.49703  -0.07425   0.37418
C     2.87740   1.06199   2.13069
H     1.82539   1.17549   2.39569
H     3.41118   1.95336   2.46650
C     3.47096  -0.15787   2.82862
H     3.39587  -0.03500   3.91044
H     2.89964  -1.04655   2.55201
C     4.93188  -0.34245   2.42680
H     5.34198  -1.22868   2.91414
H     5.51199   0.52061   2.76288
C     5.06257  -0.48066   0.91238
H     6.11403  -0.58458   0.63735
H     4.53949  -1.38146   0.58445
C     4.46318   0.73431   0.20709
H     4.53334   0.61037  -0.87608
H     5.02961   1.62546   0.48531
C    -1.11379  -1.16564   0.96172
C     0.63787  -1.21676  -1.24435
O    -0.50672   1.18975   1.02481
