38

Ni    0.00000   0.00000   0.00000
Cl    1.83139   0.75320  -0.86804
N     0.97529  -0.66907   1.46141
N     0.09696  -2.00753  -0.63646
N    -0.88526   0.17006  -1.67542
C     1.09032   1.50450   2.47495
H     0.06767   1.64723   2.10930
H     1.76312   2.01505   1.78254
H     1.19583   1.94037   3.46424
C     1.41531   0.05235   2.47331
C     2.18524  -0.52971   3.49999
H     2.52796   0.09609   4.30914
C     2.47838  -1.86284   3.46671
H     3.05750  -2.32867   4.25048
C     2.02283  -2.64638   2.38467
C     2.26936  -4.02970   2.26774
H     2.83334  -4.52094   3.04631
C     1.79597  -4.73832   1.19373
H     1.98155  -5.79958   1.12299
C     1.08555  -4.10427   0.17233
H     0.70829  -4.67417  -0.66351
C     0.83340  -2.74668   0.24164
C     1.27503  -1.99289   1.37788
C    -0.05596  -2.04822  -1.90341
H     0.41798  -2.76714  -2.57322
C    -0.81758  -0.93440  -2.45535
C    -1.39403  -0.95828  -3.72044
H    -1.31879  -1.84937  -4.32351
C    -2.06365   0.16474  -4.17402
H    -2.52551   0.17039  -5.14966
C    -2.12209   1.28277  -3.36147
H    -2.62281   2.17971  -3.68985
C    -1.51331   1.25856  -2.10790
C    -1.52420   2.43680  -1.19803
H    -0.55044   2.51529  -0.70207
H    -2.27429   2.27853  -0.42083
H    -1.74471   3.35615  -1.73271
O    -1.41215   0.03374   0.85275
