51

N    -0.16323   1.61352  -0.99236
C     0.57652   1.95995  -2.02854
C     1.63489   1.00817  -2.49763
H     1.60275   0.11870  -1.84254
C     3.03421   1.62361  -2.37967
H     3.11227   2.50015  -3.02641
H     3.20978   1.94083  -1.35047
C     4.08240   0.59366  -2.78706
H     5.07661   1.03753  -2.71051
H     4.04207  -0.25141  -2.09707
C     3.83415   0.10418  -4.21060
H     3.94197   0.94094  -4.90547
H     4.57752  -0.64888  -4.47880
C     2.43164  -0.48281  -4.33794
H     2.34044  -1.35980  -3.69444
H     2.25153  -0.80432  -5.36521
C     1.37731   0.54257  -3.93506
H     0.38513   0.09353  -4.00099
H     1.41555   1.39516  -4.61652
C     0.38108   3.19559  -2.67816
H     1.00714   3.44412  -3.51939
C    -0.58655   4.05591  -2.24871
H    -0.75110   5.00445  -2.73822
C    -1.38542   3.70110  -1.14099
C    -2.41962   4.51312  -0.63364
H    -2.61449   5.45918  -1.11594
C    -3.17196   4.10812   0.43905
H    -3.96910   4.73577   0.80792
C    -2.91776   2.89070   1.07264
H    -3.52581   2.57384   1.90681
C    -1.90336   2.07190   0.61333
C    -1.12835   2.45444  -0.52738
N    -1.56835   0.83401   1.08228
C    -1.70298   0.25593   2.21479
H    -2.16581   0.69542   3.09867
C    -1.07553  -1.05092   2.30016
N    -0.20515  -1.36335   1.30665
C     0.44211  -2.52616   1.33446
C     1.39957  -2.82332   0.23267
H     0.86167  -3.27465  -0.60297
H     2.17712  -3.50631   0.56309
H     1.85617  -1.89627  -0.12796
C     0.23098  -3.44026   2.36523
H     0.77032  -4.37382   2.35667
C    -0.65172  -3.13888   3.38625
H    -0.81906  -3.83570   4.19306
C    -1.30831  -1.92225   3.35913
H    -1.99939  -1.63734   4.13664
Ni    0.00000   0.00000   0.00000
Br    1.92823   0.80098   1.12484
O    -0.68990  -0.90746  -1.19291
