33

Mo    0.00000   0.00000   0.00000
Cl    1.17172  -1.91721  -0.62942
Cl   -0.83914   1.85540   1.13972
Cl    1.84451   1.27379  -0.60442
N    -0.94294   0.17326  -1.44540
C    -1.67006   0.30521  -2.54546
C    -3.06039   0.09076  -2.51324
C    -3.80603   0.23339  -3.65987
C    -3.21107   0.58627  -4.87045
C    -1.83522   0.79560  -4.90046
C    -1.06835   0.66271  -3.76474
C    -4.04102   0.71791  -6.10796
O     1.24530  -0.23218   1.91143
C     0.79588   0.08960   3.23389
C     1.81524  -0.52656   4.18525
C     3.09873  -0.40642   3.36927
C     2.59273  -0.71895   1.96541
H    -3.51331  -0.18123  -1.57025
H    -4.87317   0.06910  -3.62391
H    -1.35965   1.06872  -5.83131
H     0.00016   0.82443  -3.77947
H    -4.94722   1.28462  -5.90360
H    -3.48574   1.21246  -6.90044
H    -4.34022  -0.26869  -6.46247
H     0.76971   1.18310   3.33521
H    -0.21521  -0.30908   3.36507
H     1.85827   0.00035   5.13467
H     1.57865  -1.57496   4.36930
H     3.48481   0.61222   3.41676
H     3.87613  -1.09662   3.68616
H     2.57741  -1.80182   1.78180
H     3.17313  -0.22785   1.17749
O    -1.02257  -0.96094   0.86801
