47

Ti    0.00000   0.00000   0.00000
Cl    0.18313   2.04997   1.11301
Cl   -1.97642   0.59823  -0.84145
N     1.60286  -0.50021   0.67683
N     1.27641   0.83779  -1.65562
N    -0.77300  -0.91081   1.90878
C     2.78935  -0.35039  -0.10394
C     2.58554   0.89405  -0.97775
C     1.66632  -1.30432   1.85539
C     0.45993  -0.91365   2.71892
C     0.80728   2.19673  -2.01279
C     1.66644   2.95031  -3.02968
C     1.39584  -0.00389  -2.86597
C     0.11050  -0.10404  -3.68031
C    -1.28283  -2.29508   1.80133
C    -2.58663  -2.41617   1.01982
C    -1.79767  -0.02527   2.50886
C    -2.31352  -0.44446   3.88664
H     3.67774  -0.20601   0.53548
H     2.96854  -1.24922  -0.72721
H     2.58615   1.76429  -0.31211
H     3.40711   0.99011  -1.70210
H     1.64066  -2.38263   1.60032
H     2.59588  -1.11810   2.42133
H     0.37105  -1.59215   3.57950
H     0.63219   0.10675   3.07870
H     0.76846   2.79136  -1.09501
H    -0.21551   2.11098  -2.39268
H     1.26741   3.95625  -3.13285
H     1.64928   2.48488  -4.01171
H     2.69787   3.03345  -2.69556
H     2.20387   0.38865  -3.50140
H     1.67817  -1.01034  -2.54516
H     0.20785  -0.92199  -4.39064
H    -0.09419   0.80709  -4.23847
H    -0.73851  -0.32365  -3.03207
H    -0.52098  -2.89184   1.29243
H    -1.41962  -2.70980   2.81134
H    -2.75068  -3.46215   0.77076
H    -2.52824  -1.85562   0.08622
H    -3.44251  -2.06560   1.59269
H    -1.36597   0.97628   2.59837
H    -2.63738   0.03982   1.81007
H    -2.98684   0.32908   4.24731
H    -1.50150  -0.54061   4.60343
H    -2.86882  -1.37818   3.85408
O    -0.06697  -1.46404  -0.75802
