38

Zn    0.00000   0.00000   0.00000
Cl   -0.78398   0.58699  -1.95781
N    -1.19127   0.59233   1.62340
O     1.13329   1.60605   0.39134
C    -1.43139  -0.48560   2.34941
C    -2.72494  -1.67170   0.60784
H    -3.69113  -2.17145   0.69478
H    -2.07216  -2.27102  -0.03373
H    -2.86779  -0.69076   0.15836
C    -1.93745  -2.68665   2.75330
H    -1.27707  -3.38823   2.23094
H    -2.88693  -3.17740   2.97843
C    -1.26343  -2.08963   3.99527
H    -1.92493  -2.08691   4.86927
H    -0.34137  -2.61681   4.25112
N    -2.16056  -1.52167   1.91940
C     0.05900   0.04130   4.24338
H     0.74144  -0.63592   4.75596
H    -0.36774   0.73996   4.96910
H     0.62337   0.60657   3.50127
O     0.84568   3.74018  -0.15881
N    -0.96934  -0.72499   3.59432
C    -1.50952   4.48909   3.10423
H    -1.63289   5.49767   3.46569
C     1.76182   3.53994  -1.23130
H     1.86038   4.50364  -1.72350
H     1.36585   2.79271  -1.92263
H     2.72598   3.19813  -0.85049
C     0.55171   2.67761   0.56953
C    -0.63368   4.21857   2.07885
H    -0.05434   5.01017   1.63068
C    -2.09429   2.16219   3.20002
H    -2.69415   1.36346   3.61242
C    -1.19946   1.85330   2.15941
C    -2.23834   3.44654   3.66795
H    -2.93297   3.64689   4.47056
C    -0.44779   2.91415   1.60743
O     0.58097  -1.43864   0.56152
