40

Zn    0.00000   0.00000   0.00000
Cl    1.97230  -0.08980  -1.11835
O     0.46153  -1.83902   1.18155
N     0.26068  -2.84659  -0.82790
H     0.63720  -3.46939  -1.55534
N    -0.46042  -1.81278  -1.23970
N     0.33520  -3.48971  -3.38803
N    -1.38405   0.57694  -1.65408
C     2.42694  -3.69095   1.98549
H     2.41965  -2.72017   2.45640
C     3.25265  -4.70183   2.43812
H     3.90520  -4.52826   3.28003
C     3.24012  -5.93766   1.81136
H     3.88361  -6.72959   2.16439
C     2.39749  -6.16187   0.73321
H     2.38241  -7.12960   0.25427
C     1.57430  -5.15332   0.26821
H     0.90686  -5.34931  -0.55776
C     1.58751  -3.90596   0.89227
C     0.73651  -2.78390   0.45697
C    -0.67229  -1.52430  -2.47435
C    -0.05948  -2.22920  -3.60481
C     0.95822  -4.14365  -4.35068
H     1.25145  -5.15662  -4.10718
C     1.23245  -3.59205  -5.59170
H     1.73737  -4.16797  -6.35035
C     0.86180  -2.27398  -5.81357
H     1.08582  -1.79173  -6.75343
C     0.21107  -1.57759  -4.81120
H    -0.04823  -0.53954  -4.93965
C    -1.47432  -0.30591  -2.65080
C    -2.31102  -0.08576  -3.74286
H    -2.40864  -0.83393  -4.51438
C    -3.03735   1.09280  -3.79793
H    -3.69438   1.28719  -4.63269
C    -2.91437   2.00894  -2.76536
H    -3.46059   2.93813  -2.77531
C    -2.07715   1.69891  -1.70259
H    -1.95418   2.35835  -0.85446
O    -0.52736   1.11100   1.10003
