27

Au    0.00000   0.00000   0.00000
O    -3.09475   1.67868  -3.20916
O    -2.98712   2.02490  -5.32990
O    -0.00832  -1.13595  -7.49947
O     1.90135  -1.53863  -6.59543
N    -0.66950   2.01024  -2.12373
N    -1.17722   3.24127  -2.34804
N    -1.10109   2.80554  -0.20898
N    -2.52901   1.65871  -4.27849
N     0.79716  -1.04899  -6.60377
C    -0.60762   1.70602  -0.81502
C    -1.42965   3.70924  -1.17441
H    -1.84157   4.67869  -0.98607
C    -0.32448   1.19648  -3.20758
C    -1.19108   1.08833  -4.30419
C    -0.82090   0.36334  -5.42428
H    -1.48546   0.29167  -6.27450
C     0.40555  -0.28217  -5.43226
C     1.26399  -0.21001  -4.34022
H     2.20925  -0.73032  -4.37724
C     0.90349   0.53913  -3.23746
H     1.57199   0.62621  -2.39612
C    -1.27339   2.99409   1.20344
H    -0.90219   2.11187   1.72258
H    -2.33033   3.13074   1.43584
H    -0.71896   3.87283   1.53554
O     0.51779  -1.42193   0.65765
