49

Rh    0.00000   0.00000   0.00000
O     2.19314   5.75643  -1.52920
O     0.45940   5.70999  -0.24691
O     4.27620   2.47167   0.44446
O     6.06038   2.40025  -0.76006
O     6.81765  -2.07846  -2.50878
O     5.12569  -3.30803  -3.01478
N     2.13743   1.80899  -1.02636
N     2.44086   3.08439  -1.27763
N     0.50179   2.93930  -0.24408
N     1.36232   5.18943  -0.86866
N     4.95216   2.03708  -0.46380
N     5.63040  -2.28644  -2.60576
C     0.94603   1.67020  -0.38574
C     1.43847   3.76288  -0.80541
C     3.00757   0.78091  -1.38355
C     4.39245   0.92143  -1.20589
C     5.25732  -0.07234  -1.63111
H     6.32523   0.04199  -1.50690
C     4.73291  -1.22889  -2.18925
C     3.35777  -1.39803  -2.33648
H     2.98586  -2.31286  -2.77268
C     2.49870  -0.38980  -1.95055
H     1.42720  -0.48314  -2.10415
C    -0.75939   3.28849   0.35204
H    -1.28611   2.35345   0.57200
H    -1.35134   3.88675  -0.34037
H    -0.60420   3.86444   1.26462
C     0.46824  -0.13471   2.09442
H     0.65442   0.86794   2.47773
C     1.48415  -0.72394   1.34763
H     2.41005  -0.15900   1.23342
C     1.67223  -2.21167   1.16663
H     2.09869  -2.63135   2.08374
H     2.40793  -2.36504   0.37260
C     0.37491  -2.95980   0.80174
H     0.63490  -3.83627   0.20611
H    -0.12380  -3.31941   1.70225
C    -0.59238  -2.10264   0.01560
H    -0.70540  -2.37620  -1.03377
C    -1.59369  -1.35272   0.58818
H    -2.45631  -1.09840  -0.02757
C    -1.83658  -1.20148   2.07116
H    -2.32902  -2.10477   2.44546
H    -2.53346  -0.37207   2.21702
C    -0.55473  -0.92632   2.88033
H    -0.10142  -1.86163   3.20945
H    -0.82353  -0.36603   3.77741
O    -0.78790   0.33286  -1.41100
