47

N    -1.82290   1.93037  -1.38244
N    -2.77270   2.87058  -1.16243
N    -1.96685   2.12995   0.73128
C    -1.29986   1.45010  -0.22878
C    -2.84719   2.96779   0.12015
H    -3.52012   3.62319   0.63353
C    -1.47959   1.55901  -2.67343
C    -1.47791   2.50432  -3.71222
C    -1.23333   2.11601  -5.01749
H    -1.24971   2.84278  -5.81742
C    -0.93501   0.78706  -5.28242
C    -0.88954  -0.15586  -4.25538
H    -0.65459  -1.18087  -4.49911
C    -1.17527   0.22454  -2.96293
H    -1.19545  -0.50686  -2.15782
C    -1.77987   1.95551   2.14513
H    -1.17785   1.05319   2.29554
H    -2.74458   1.82902   2.63624
H    -1.26580   2.81863   2.57294
C     1.61788   1.32353   0.38825
H     1.24999   2.31861   0.64201
C     1.64053   0.98156  -0.96270
H     1.25808   1.72515  -1.66174
C     2.63890   0.01698  -1.56679
H     3.57591   0.08621  -1.01279
H     2.84979   0.32319  -2.59302
C     2.12872  -1.43791  -1.58423
H     1.60735  -1.61894  -2.52721
H     2.97658  -2.12984  -1.54777
C     1.18245  -1.76175  -0.45143
H     0.46984  -2.55452  -0.68034
C     1.39544  -1.45067   0.87088
H     0.81694  -1.98971   1.62071
C     2.65555  -0.78875   1.38082
H     3.49031  -1.07253   0.73922
H     2.87450  -1.16572   2.38158
C     2.52473   0.74423   1.44921
H     2.11950   1.02192   2.42606
H     3.51333   1.20887   1.36773
N    -1.60829   3.92307  -3.44295
N    -0.64885   0.38036  -6.63686
Rh    0.00000   0.00000   0.00000
O    -1.04794   4.33775  -2.45146
O    -2.19992   4.59138  -4.25283
O    -0.72134   1.22528  -7.50186
O    -0.34837  -0.78057  -6.81608
O    -1.31505  -0.93420   0.34701
