45

Zn    0.00000   0.00000   0.00000
Cl    1.42261  -1.46241  -0.86080
N     0.75186   1.75889  -0.91557
N     1.31592   0.72679   1.54577
N     3.13732  -4.20843   9.84821
C     0.45459   2.29056  -2.08709
H    -0.48559   1.98089  -2.52237
C     1.28741   3.19409  -2.73149
H     1.00860   3.60184  -3.68956
C     2.48158   3.54839  -2.11982
H     3.15921   4.24151  -2.59531
C     2.79062   2.99681  -0.89031
H     3.70885   3.24705  -0.38163
C     1.89588   2.09577  -0.30793
C     2.17177   1.48711   0.97385
H     3.13242   1.72267   1.43356
C     1.60071   0.06620   2.72566
C     2.87545  -0.45706   2.97473
H     3.63745  -0.36721   2.21449
C     3.13269  -1.16465   4.12492
H     4.10783  -1.60254   4.27374
C     2.12983  -1.36305   5.07838
C     0.86351  -0.83340   4.82199
H     0.08541  -0.95921   5.56045
C     0.57307  -0.13122   3.66793
C    -0.78280   0.45367   3.44846
H    -1.43332   0.24513   4.29346
H    -1.23788   0.03566   2.54938
H    -0.72229   1.53186   3.30861
C     2.39422  -2.11165   6.30542
C     3.62441  -2.00659   6.95762
H     4.37588  -1.34155   6.55650
C     3.90159  -2.69208   8.12304
C     2.92265  -3.54571   8.66123
C     1.69288  -3.65964   8.01041
H     0.94308  -4.31990   8.42306
C     1.42777  -2.94996   6.86104
H     0.47655  -3.07540   6.36672
C     5.22507  -2.53096   8.81266
H     5.08337  -2.20346   9.84229
H     5.83415  -1.79319   8.29737
H     5.77507  -3.47367   8.82644
H     4.09197  -4.37645  10.11674
H     2.49819  -4.95647  10.06212
O    -1.64992   0.00381  -0.01551
