55

C    -1.89717   0.88780   2.78160
C    -2.97101   1.09941   2.03031
C     0.13230   2.79651   2.29462
H     1.17109   2.93443   1.97494
C    -0.76411   3.60699   1.36054
H    -0.73084   3.20914   0.34647
H    -0.42361   4.63936   1.32569
H    -1.79749   3.60205   1.70273
C    -0.02054   3.25492   3.74118
H     0.69430   2.76670   4.39895
H    -1.02509   3.06584   4.11583
H     0.15736   4.32759   3.79370
C     0.78434   0.10930   3.35696
H     0.48588   0.48609   4.34178
C     0.49095  -1.38640   3.27247
H    -0.56839  -1.59614   3.41348
H     1.04977  -1.92154   4.03752
H     0.79567  -1.77345   2.29757
C     2.26613   0.37776   3.10638
H     2.51377   1.43105   3.22004
H     2.54180   0.06661   2.09799
H     2.87006  -0.19209   3.80976
F    -2.03007   0.64029   4.09697
F    -4.23596   1.11142   2.40105
F    -2.85169   1.35882   0.73279
Pt    0.00000   0.00000   0.00000
P    -0.21125   0.98092   2.06589
C     1.89763  -0.88785  -2.78194
C     2.97141  -1.09945  -2.03056
C    -0.13198  -2.79642  -2.29479
H    -1.17077  -2.93436  -1.97514
C     0.76441  -3.60695  -1.36072
H     0.73116  -3.20912  -0.34664
H     0.42388  -4.63931  -1.32588
H     1.79779  -3.60203  -1.70291
C     0.02087  -3.25484  -3.74135
H    -0.69394  -2.76661  -4.39914
H     1.02543  -3.06582  -4.11599
H    -0.15709  -4.32751  -3.79383
C    -0.78408  -0.10924  -3.35718
H    -0.48560  -0.48604  -4.34197
C    -0.49067   1.38645  -3.27261
H     0.56867   1.59617  -3.41365
H    -1.04951   1.92161  -4.03763
H    -0.79535   1.77347  -2.29768
C    -2.26587  -0.37771  -3.10655
H    -2.51349  -1.43100  -3.22023
H    -2.54155  -0.06660  -2.09815
H    -2.86981   0.19215  -3.80990
Br   -1.73959  -1.65957   0.50848
F     2.03057  -0.64028  -4.09729
F     4.23638  -1.11136  -2.40121
F     2.85200  -1.35877  -0.73303
P     0.21174  -0.98081  -2.06628
O     1.16803   1.11434  -0.34124
