68

Pd    0.00000   0.00000   0.00000
Cl    0.76557   2.10360   0.10612
N    -1.50810  -2.62911   0.01089
N     1.55905  -0.22081   2.46775
H     2.43653  -0.15352   2.97755
N     2.79865  -0.31198   0.57226
H     2.83692  -0.22144  -0.44845
N     3.94516  -0.20779   1.28891
C    -0.77954  -1.72145  -0.03304
C    -2.61183  -3.47227   0.19691
H    -2.22958  -4.49744   0.29331
C    -3.56371  -3.37884  -1.00254
H    -4.34683  -4.12806  -0.86309
H    -3.02019  -3.62023  -1.91796
C    -4.18082  -1.98732  -1.11316
H    -3.40256  -1.25213  -1.32927
H    -4.89075  -1.97572  -1.94131
C    -4.88433  -1.59621   0.18264
H    -5.28804  -0.58863   0.08328
H    -5.71654  -2.27874   0.37878
C    -3.90160  -1.64276   1.34859
H    -4.40164  -1.35877   2.27678
H    -3.09239  -0.92504   1.16447
C    -3.32565  -3.04894   1.49011
H    -4.13201  -3.76045   1.67891
H    -2.62498  -3.09552   2.32685
C     1.59422  -0.29251   1.15340
C     0.32755  -0.11090   3.22022
H    -0.46916   0.17799   2.49845
C    -0.04837  -1.45244   3.85580
H     0.73886  -1.75884   4.54872
H    -0.12836  -2.20874   3.07069
C    -1.37038  -1.31410   4.60496
H    -1.63775  -2.26702   5.06556
H    -2.15703  -1.04766   3.89605
C    -1.26563  -0.22918   5.67306
H    -2.22070  -0.12714   6.19063
H    -0.51446  -0.51777   6.41184
C    -0.87402   1.10447   5.04323
H    -1.65481   1.42232   4.34968
H    -0.78105   1.86883   5.81608
C     0.44532   0.97527   4.28683
H     1.24512   0.71386   4.98501
H     0.70025   1.92281   3.80970
C     5.03675   0.14304   0.71273
C     6.25144   0.15309   1.52966
C     7.34379   0.94376   1.17416
H     7.29146   1.56611   0.29295
C     8.48464   0.94749   1.95446
H     9.32433   1.56491   1.67158
C     8.55349   0.16502   3.09537
H     9.44834   0.16697   3.69977
C     6.32721  -0.62576   2.68521
H     5.48100  -1.23944   2.95277
C     5.13785   0.53278  -0.71058
C     6.08165  -0.07691  -1.53478
H     6.73630  -0.83245  -1.12355
C     6.16884   0.27263  -2.86911
H     6.90042  -0.20769  -3.50213
C     7.47016  -0.61962   3.45939
H     7.52148  -1.23070   4.34863
C     5.32233   1.23692  -3.39338
H     5.39372   1.50810  -4.43609
C     4.38763   1.85318  -2.57865
H     3.72637   2.60597  -2.97941
C     4.28850   1.50381  -1.24347
H     3.56620   2.00429  -0.61253
O    -1.27494   0.44259  -0.94928
