41

Re    0.00000   0.00000   0.00000
O     1.46651  -0.75129   0.14570
O    -1.35662   1.36963  -0.37530
O    -1.99841   3.21127  -1.47336
O    -1.05363  -0.33922   1.70325
O    -1.77426   0.53520   3.60783
N     0.46608   0.78345  -2.05229
N     0.63937   1.69041   1.33398
C    -0.30800   1.79556  -2.39137
C    -0.23689   2.46030  -3.62072
H    -0.90892   3.28654  -3.78904
C     0.66686   2.01760  -4.54572
H     0.75521   2.48924  -5.51289
C     1.48185   0.90858  -4.23865
C     2.40458   0.38134  -5.16551
H     2.49160   0.85917  -6.12983
C     3.16181  -0.71286  -4.85329
H     3.86167  -1.11377  -5.57026
C     3.02692  -1.32532  -3.59812
H     3.61926  -2.19650  -3.36656
C     2.14944  -0.83463  -2.66883
H     2.03777  -1.31109  -1.70419
C     1.35703   0.29185  -2.95787
C    -1.33781   2.20777  -1.34424
C    -0.16724   1.76281   2.36881
C    -0.18106   2.85621   3.24850
H    -0.87400   2.82900   4.07468
C     0.65750   3.90794   3.00212
H     0.65192   4.78772   3.62893
C     1.55227   3.84136   1.91308
C     2.47045   4.86744   1.61004
H     2.48094   5.75005   2.23199
C     3.33272   4.74000   0.55689
H     4.03353   5.52876   0.32986
C     3.32567   3.57673  -0.22998
H     4.02960   3.48368  -1.04296
C     2.44432   2.56323   0.02923
H     2.44432   1.64931  -0.54636
C     1.52765   2.67879   1.09193
C    -1.09470   0.56773   2.60754
O    -0.83690  -1.16552  -0.81465
