67

Pt    0.00000   0.00000   0.00000
N    -2.79297  -0.70227   0.32888
P    -1.78911  -0.96579  -1.05094
P    -1.69213  -0.15092   1.54291
Cl    1.44940  -0.01801  -1.74197
C    -4.20509  -0.70784   0.45577
C    -4.80396  -1.77121   1.12791
H    -4.17240  -2.53864   1.55338
C    -6.17700  -1.84200   1.25966
H    -6.62691  -2.67243   1.78267
C    -6.96518  -0.84702   0.70675
H    -8.04075  -0.90250   0.78113
C    -6.37116   0.22787   0.07356
H    -6.99410   1.00712  -0.33833
C    -4.98948   0.33890  -0.04286
C    -4.38485   1.57065  -0.65700
H    -4.59434   1.58516  -1.72987
H    -3.29825   1.54551  -0.53055
C    -4.91738   2.86067  -0.03399
H    -5.96810   3.01008  -0.26780
H    -4.36038   3.70965  -0.42225
H    -4.80437   2.83922   1.04642
C    -1.85119  -2.74201  -1.43519
C    -0.70086  -3.25472  -2.02979
H     0.13850  -2.59296  -2.20249
C    -0.64085  -4.59087  -2.37958
H     0.25083  -4.98859  -2.83997
C    -1.72402  -5.41928  -2.13073
H    -1.67746  -6.46447  -2.39855
C    -2.86683  -4.91155  -1.53380
H    -3.70865  -5.55990  -1.33808
C    -2.93725  -3.57377  -1.18657
H    -3.82734  -3.18090  -0.71643
C    -2.60810  -0.24909  -2.50450
C    -3.77717  -0.77836  -3.03967
H    -4.23569  -1.64787  -2.59119
C    -4.35042  -0.17965  -4.14669
H    -5.26274  -0.58192  -4.56223
C    -3.75426   0.93018  -4.72647
H    -4.20537   1.38887  -5.59398
C    -2.58008   1.44701  -4.20226
H    -2.11272   2.30457  -4.66209
C    -2.00609   0.85965  -3.08949
H    -1.08398   1.24081  -2.66652
C    -1.70258  -1.47112   2.78869
C    -1.56458  -2.78412   2.34374
H    -1.52004  -2.98198   1.27891
C    -1.48039  -3.82046   3.25293
H    -1.38218  -4.83773   2.90334
C    -1.50822  -3.55027   4.61288
H    -1.43786  -4.35927   5.32459
C    -1.60777  -2.24272   5.05927
H    -1.60909  -2.03247   6.11858
C    -1.69782  -1.20097   4.15281
H    -1.76055  -0.17931   4.49970
C    -2.52020   1.24478   2.34857
C    -1.92908   2.49779   2.22978
H    -1.00180   2.59033   1.67778
C    -2.51687   3.59608   2.83234
H    -2.05586   4.56860   2.74963
C    -3.69531   3.44377   3.54524
H    -4.15489   4.29957   4.01723
C    -4.28956   2.19493   3.65657
H    -5.21004   2.08129   4.21033
C    -3.70461   1.09096   3.06359
H    -4.15926   0.11458   3.15599
O     1.11581   0.75162   0.95527
