52

Pd    0.00000   0.00000   0.00000
P    -1.70262   1.18818  -0.73245
C    -2.05736   1.92065  -2.34168
C    -2.42230   3.25243  -2.49402
H    -2.47641   3.89482  -1.62766
C    -2.70507   3.73936  -3.75805
H    -2.99054   4.77381  -3.88389
C    -2.61984   2.90473  -4.86095
H    -2.84009   3.29187  -5.84512
C    -2.24441   1.57872  -4.70734
H    -2.16855   0.93434  -5.57039
C    -1.96038   1.08269  -3.44874
H    -1.64347   0.05731  -3.30901
C    -3.22983   0.28138  -0.30381
C    -4.49824   0.78269  -0.56454
H    -4.60326   1.73135  -1.07284
C    -5.61212   0.06226  -0.17196
H    -6.60143   0.44690  -0.37244
C    -5.46025  -1.15457   0.47418
H    -6.33306  -1.71541   0.77464
C    -4.19473  -1.65727   0.73332
H    -4.08332  -2.60851   1.23252
C    -3.07778  -0.93882   0.34656
H    -2.06437  -1.32639   0.52855
C    -0.36786   1.11746   1.63327
C    -1.18222   2.24230   1.48748
C    -1.47515   3.07741   2.55135
H    -2.10310   3.94158   2.39942
C    -0.96596   2.77093   3.80374
H    -1.17740   3.42027   4.63944
C    -0.22309   1.61906   3.99341
H     0.12571   1.35957   4.98334
C     0.05778   0.78618   2.91752
C     0.78084  -0.53619   3.11546
H     1.09413  -0.66104   4.15226
H     0.09538  -1.35596   2.84666
C     3.24650  -0.59714   2.58243
C     3.94482  -0.53999   1.39176
H     5.00798  -0.50764   1.27017
C     2.97897  -0.51168   0.37775
C     3.74235  -0.62132   3.98211
H     3.39686   0.25563   4.52967
H     4.82847  -0.62128   3.97957
H     3.39698  -1.51331   4.50470
C     3.15223  -0.36740  -1.09181
H     2.36538   0.28955  -1.48856
H     3.05304  -1.33437  -1.58572
H     4.12955   0.05063  -1.31987
N     1.93667  -0.62296   2.25838
N     1.77428  -0.58452   0.93163
O    -1.75143   2.49522   0.23986
O     0.07428  -1.01243  -1.30076
