46

O    -1.37914  -0.79237  -2.61145
Pd    0.00000   0.00000   0.00000
P     0.15035  -0.73673  -2.06685
C     1.02877  -0.10931  -3.51284
C     0.38763   0.18086  -4.71054
H    -0.68076   0.04659  -4.79185
C     1.12845   0.64227  -5.78459
H     0.63604   0.86784  -6.71949
C     2.49712   0.81926  -5.66157
H     3.06919   1.18322  -6.50251
C     3.13333   0.53975  -4.46131
H     4.19841   0.68964  -4.36583
C     2.40228   0.07612  -3.38398
H     2.87594  -0.12574  -2.43223
C     0.65951  -2.48963  -1.98016
C     0.90666  -3.01800  -0.71719
H     0.82335  -2.36242   0.16265
C     1.27134  -4.34576  -0.58485
H     1.47122  -4.75947   0.39250
C     1.38401  -5.14454  -1.71215
H     1.67011  -6.18098  -1.60978
C     1.13472  -4.61953  -2.97054
H     1.22579  -5.24743  -3.84474
C     0.77465  -3.29090  -3.10861
H     0.58204  -2.86781  -4.08489
C    -1.92687  -0.54392  -0.27890
C    -2.33155  -0.79845  -1.59398
C    -3.64547  -1.08177  -1.92287
H    -3.91061  -1.27243  -2.95120
C    -4.59661  -1.12048  -0.91608
H    -5.62733  -1.32649  -1.16020
C    -4.22254  -0.91839   0.39948
H    -4.96227  -0.98170   1.18514
C    -2.89660  -0.64620   0.71703
C    -2.47420  -0.54302   2.17140
H    -3.34850  -0.50535   2.82417
H    -1.88320  -1.43735   2.42348
C    -1.89620   1.60410   3.32310
H    -2.78525   1.62978   3.92053
C    -0.82433   2.46758   3.26965
H    -0.67994   3.36352   3.83640
C     0.03112   1.92180   2.31022
H     0.99042   2.27083   1.97056
N    -0.49213   0.80066   1.83280
N    -1.66257   0.61828   2.44052
O     1.59048   0.41860   0.13285
