65

Ti    0.00000   0.00000   0.00000
C     0.97501   0.31589   2.16743
C     1.95004  -0.21560   1.29659
H     2.47557  -1.15371   1.42937
C     2.19770   0.73184   0.27173
H     2.96545   0.65242  -0.48865
C     1.37656   1.84831   0.51123
H     1.42706   2.79418  -0.01123
C     0.59608   1.57903   1.65978
H    -0.04602   2.28157   2.17487
C     0.56919  -0.23753   3.50310
H     0.78214  -1.30867   3.53971
H    -0.50088  -0.09269   3.66780
C     1.35462   0.48715   4.57107
C     2.73268   0.29444   4.65306
H     3.19690  -0.38937   3.96067
C     3.49371   0.96118   5.59396
O     4.84140   0.83403   5.74358
C     5.52725  -0.03503   4.87831
H     5.18271  -1.06891   4.98781
H     6.57444   0.02668   5.17013
H     5.42431   0.27264   3.83210
C     2.86286   1.85407   6.49039
O     3.68704   2.46629   7.38688
C     3.11881   3.35686   8.31241
H     2.64378   4.20928   7.81454
H     3.94695   3.71396   8.92262
H     2.38529   2.85849   8.95542
C     1.49597   2.04178   6.40112
H     0.99186   2.71696   7.07391
C     0.74818   1.36582   5.44440
H    -0.31804   1.53028   5.39750
Cl    1.01417  -1.57763  -1.20543
C    -0.97286   0.31528  -2.16818
C    -1.94776  -0.21923  -1.29893
H    -2.47074  -1.15858  -1.43296
C    -2.19926   0.72705  -0.27395
H    -2.96775   0.64524   0.48540
C    -1.38039   1.84558  -0.51146
H    -1.43373   2.79087   0.01176
C    -0.59792   1.57908  -1.65933
H     0.04288   2.28362  -2.17330
C    -0.56397  -0.23607  -3.50378
H    -0.77491  -1.30756  -3.54178
H     0.50611  -0.08917  -3.66667
C    -1.34898   0.48816  -4.57238
C    -2.72711   0.29592  -4.65429
H    -3.19161  -0.38713  -3.96133
C    -3.48787   0.96217  -5.59575
O    -4.83561   0.83545  -5.74520
C    -5.52180  -0.03235  -4.87895
H    -5.17790  -1.06655  -4.98753
H    -6.56902   0.02970  -5.17061
H    -5.41845   0.27626  -3.83306
C    -2.85664   1.85402  -6.49295
O    -3.68056   2.46588  -7.38992
C    -3.11199   3.35560  -8.31607
H    -2.63654   4.20812  -7.81877
H    -3.94001   3.71269  -8.92645
H    -2.37874   2.85648  -8.95880
C    -1.48967   2.04122  -6.40383
H    -0.98528   2.71562  -7.07718
C    -0.74216   1.36580  -5.44649
H     0.32411   1.52989  -5.39970
O    -0.74970  -1.16762   0.89282
