57

Ti    0.00000   0.00000   0.00000
Cl   -1.70921   1.40308   0.30262
C    -0.51197  -0.81620   2.10983
C     0.18814   0.40158   2.30311
H    -0.20187   1.27365   2.81207
C     1.50126   0.23528   1.82920
H     2.30475   0.95267   1.93517
C     1.63050  -1.09207   1.35351
H     2.55034  -1.57322   1.04886
C     0.39643  -1.74054   1.53433
H     0.19407  -2.78870   1.35214
C    -1.90776  -1.11307   2.56426
H    -2.30855  -1.94884   1.97740
H    -2.54725  -0.24268   2.38045
C    -1.98511  -1.47392   4.03053
C    -0.87463  -1.90954   4.72859
H     0.09006  -1.98604   4.25113
C    -0.96604  -2.26234   6.07550
O     0.19958  -2.67518   6.65250
C     0.17764  -3.06602   8.00290
H    -0.11989  -2.24002   8.65724
H     1.19819  -3.36217   8.24092
H    -0.49225  -3.91683   8.16508
C    -2.19064  -2.17770   6.72475
H    -2.29429  -2.44345   7.76475
C    -3.30256  -1.74168   6.02103
H    -4.25380  -1.67585   6.52857
C    -3.20845  -1.39083   4.68993
H    -4.08298  -1.05182   4.15525
C     1.30181  -0.45466  -1.85182
C     2.06173   0.41606  -1.04172
H     3.04790   0.21276  -0.64805
C     1.38353   1.65321  -0.96106
H     1.74982   2.55091  -0.47887
C     0.25468   1.58103  -1.80646
H    -0.41275   2.39893  -2.04367
C     0.19357   0.28733  -2.34486
H    -0.52403  -0.06274  -3.07533
C     1.67744  -1.84931  -2.27552
H     2.48884  -2.22285  -1.64492
H     0.81177  -2.51183  -2.17285
C     2.12139  -1.81394  -3.71782
C     3.42148  -1.46537  -4.03375
H     4.14126  -1.24697  -3.25994
C     3.84174  -1.38945  -5.36105
O     5.14818  -1.04652  -5.54607
C     5.64329  -0.97312  -6.86039
H     5.56501  -1.93702  -7.37392
H     6.69345  -0.70108  -6.76517
H     5.12361  -0.20666  -7.44454
C     2.93499  -1.66041  -6.37889
H     3.22700  -1.60907  -7.41570
C     1.63162  -2.00355  -6.05778
H     0.93202  -2.21330  -6.85350
C     1.22033  -2.08201  -4.74190
H     0.20342  -2.35664  -4.50488
O    -1.03565  -1.15386  -0.56441
