54

Fe    0.00000   0.00000   0.00000
Cl   -0.28947   2.03997  -0.32607
N    -1.01669   0.03164   1.66822
N    -1.46344  -0.86652  -0.51911
N    -2.87012  -0.53551   2.78649
C    -2.06151   0.15363   3.66122
N     0.57548  -0.30197  -1.90138
C    -0.89365   0.49722   2.94371
C    -1.53214  -1.29674  -1.80209
C    -2.20967  -0.57789   1.59027
C    -3.65086  -1.80047  -0.17046
H    -4.48642  -1.97493   0.48690
C    -0.39335  -0.98019  -2.56537
C    -5.27789  -0.32011   2.31586
C    -2.52234  -1.12059   0.31112
C    -2.62387  -1.98829  -2.34438
C     1.66835   0.03799  -2.57084
C    -1.17748   1.21426   5.57958
H    -1.26486   1.51016   6.61415
C    -2.21298   0.51375   4.99184
H    -3.10107   0.26550   5.55342
C    -3.71111  -2.23255  -1.47593
H    -4.58326  -2.75263  -1.83957
C    -4.18289  -1.04750   3.06480
H    -4.35352  -0.94601   4.14151
H    -4.21416  -2.11716   2.82480
C     0.13970   1.20152   3.54922
H     1.02389   1.45466   2.98483
C    -0.02141   1.55171   4.87278
H     0.75865   2.09981   5.37863
C    -5.09408   0.97033   1.84026
H    -4.15420   1.47904   1.99544
C     1.82452  -0.30127  -3.92321
H     2.73173  -0.00573  -4.42760
C    -0.32091  -1.36060  -3.91953
C    -2.52848  -2.36685  -3.71099
H    -3.35678  -2.90313  -4.15063
C     2.70787   0.80965  -1.82992
H     2.84699   0.37588  -0.83831
H     2.36435   1.83628  -1.69733
H     3.65392   0.81527  -2.36322
C    -6.11246   1.61313   1.15775
H    -5.95511   2.61450   0.78693
C    -6.49769  -0.95304   2.10866
H    -6.64808  -1.95748   2.47988
C     0.84860  -0.99623  -4.60318
H     0.97516  -1.25667  -5.64352
C    -1.42999  -2.06808  -4.46121
H    -1.38338  -2.36654  -5.49844
C    -7.51639  -0.30738   1.43220
H    -8.45960  -0.80961   1.27665
C    -7.32386   0.97700   0.95147
H    -8.11657   1.47956   0.41815
O     1.05480  -1.12925   0.57853
