47

N    -0.65193   1.52881  -0.63918
C    -1.03920   1.66407  -1.93206
C    -1.66226   2.83146  -2.38819
H    -1.95584   2.90515  -3.42460
C    -1.89449   3.87383  -1.51986
H    -2.36382   4.78347  -1.86037
C    -1.50649   3.74847  -0.16712
C    -1.67634   4.73963   0.83506
H    -2.16039   5.66609   0.56272
C    -1.23000   4.54332   2.10696
H    -1.35192   5.31488   2.85323
C    -0.58132   3.33949   2.49337
C    -0.04994   3.07781   3.76595
H    -0.14074   3.81139   4.55361
C     0.60976   1.89152   3.97096
H     1.06233   1.67773   4.92695
C     0.71868   0.92943   2.94831
C     1.49080  -0.31932   3.17827
H     0.83293  -1.18719   3.17859
H     2.03569  -0.27630   4.11677
H     2.18650  -0.45958   2.35194
N     0.15659   1.12272   1.76342
C    -0.43354   2.32135   1.52905
C    -0.88715   2.54515   0.21087
C    -0.73757   0.45976  -2.62871
N    -0.25892  -0.54814  -1.90033
C    -0.02775  -1.58157  -2.76633
C     0.48016  -2.85878  -2.55186
H     0.76708  -3.17024  -1.56160
C     0.59974  -3.68716  -3.64782
H     0.99441  -4.68309  -3.51636
C     0.22715  -3.27410  -4.92864
H     0.34040  -3.95782  -5.75650
C    -0.27936  -2.01009  -5.16207
H    -0.56422  -1.68817  -6.15234
C    -0.39990  -1.16996  -4.06805
N    -0.85323   0.12121  -3.94240
H    -1.15822   0.72400  -4.68638
O    -2.13110  -0.64833   0.42835
H    -1.83116  -1.56919   0.56874
C    -2.83489  -0.23048   1.58146
H    -2.23191  -0.35267   2.48473
H    -3.76188  -0.80170   1.68472
H    -3.07656   0.82375   1.45506
Fe    0.00000   0.00000   0.00000
Cl    0.34344  -1.99347   0.74522
O     1.57714   0.35354  -0.33187
