51

Zn    0.00000   0.00000   0.00000
Cl    1.13556   0.81682  -1.70826
O    -0.00800   1.19035   1.73586
C     0.63285   0.65152   2.63422
C     1.58755  -0.42678   2.49688
C     2.06418  -0.71171   3.90611
H     2.51609  -1.67865   4.09978
C     2.96649   0.48996   4.25383
H     3.71584   0.65940   3.48020
H     3.48907   0.32364   5.19517
C     1.96610   1.65621   4.34988
H     2.15796   2.42538   3.60202
H     1.98287   2.13335   5.32892
C     0.58617   0.99124   4.10781
C    -0.60238   1.82039   4.54283
H    -0.62604   2.75313   3.98353
H    -0.54036   2.05016   5.60394
H    -1.52769   1.28218   4.35216
C     0.77801  -0.42380   4.71364
C    -0.35355  -1.39029   4.36553
H    -0.10314  -2.39112   4.71244
H    -0.54019  -1.44257   3.29504
H    -1.27461  -1.08688   4.85770
C     0.97216  -0.44299   6.22674
H     0.02758  -0.22757   6.72055
H     1.70538   0.27910   6.56866
H     1.29650  -1.43343   6.53974
N     1.85153  -0.83329   1.29957
N     2.66159  -1.76559   0.92195
C     2.71441  -2.07327  -0.48478
H     2.36854  -1.21387  -1.05640
H     2.07692  -2.93130  -0.71455
H     3.74147  -2.29825  -0.77051
C     3.31078  -2.69055   1.82403
H     3.97421  -2.15813   2.50792
H     3.89992  -3.39359   1.24162
H     2.56681  -3.24867   2.39781
O    -1.94033   0.92857  -0.57606
C    -3.07192   0.78680   0.26604
H    -2.94807  -0.12063   0.85484
H    -3.96899   0.69403  -0.36237
C    -3.12425   2.07177   1.10277
H    -2.61134   1.92235   2.05073
H    -4.15076   2.37332   1.30175
C    -2.36374   3.09217   0.23691
H    -2.97421   3.95245  -0.03063
H    -1.47193   3.44083   0.75457
C    -1.96806   2.28057  -1.00319
H    -2.72322   2.38397  -1.79526
H    -0.98764   2.53377  -1.40225
O    -0.67361  -1.42763   0.48024
