63

Tc    0.00000   0.00000   0.00000
N    -0.48439   1.09575   1.24636
F    -1.89629   4.44279   5.28183
C    -0.83411   1.91125   2.23750
C    -0.86498   3.30517   2.02464
H    -0.60496   3.67827   1.04650
C    -1.21741   4.15297   3.04959
H    -1.24321   5.22197   2.90859
C    -1.54477   3.61523   4.28702
C    -1.52479   2.24758   4.52613
H    -1.78242   1.87406   5.50453
C    -1.17082   1.39461   3.50583
H    -1.13686   0.32595   3.64848
P    -2.29790  -0.77189  -0.31515
C    -3.20379  -1.50118   1.08378
C    -4.59162  -1.60824   1.00694
H    -5.10929  -1.25285   0.12673
C    -5.29905  -2.16978   2.05290
H    -6.37379  -2.25367   1.99017
C    -4.63064  -2.62537   3.17926
H    -5.18706  -3.06231   3.99492
C    -3.25171  -2.52405   3.25492
H    -2.72958  -2.88580   4.12785
C    -2.53407  -1.96413   2.21050
H    -1.45629  -1.89910   2.25541
C    -3.42662   0.58211  -0.78043
C    -4.11402   0.64972  -1.98489
H    -4.00165  -0.12958  -2.72361
C    -4.95079   1.72354  -2.24099
H    -5.47735   1.77529  -3.18228
C    -5.11107   2.72685  -1.30176
H    -5.75797   3.56531  -1.51129
C    -4.44200   2.65210  -0.08957
H    -4.57102   3.42769   0.65058
C    -3.60633   1.58425   0.17087
H    -3.08530   1.51101   1.11613
C    -2.42077  -1.99421  -1.64085
C    -2.81749  -3.30245  -1.38524
H    -3.07586  -3.60237  -0.37994
C    -2.86969  -4.21822  -2.42162
H    -3.17303  -5.23469  -2.22136
C    -2.52201  -3.83839  -3.70692
H    -2.55798  -4.55805  -4.51081
C    -2.10813  -2.53960  -3.96085
H    -1.81394  -2.24931  -4.95834
C    -2.04881  -1.61820  -2.93239
H    -1.69658  -0.61148  -3.11656
O     1.98600   0.44628  -0.23935
O     0.35823  -1.45353  -1.35977
C     1.31947  -3.09063  -2.76320
C     1.43919  -1.86149  -1.85299
C     2.69538  -1.29908  -1.68866
H     3.55321  -1.72844  -2.17654
C     2.85807  -0.15885  -0.88586
C     4.28723   0.40505  -0.81382
F     4.37708   1.46427  -0.01507
F     4.72412   0.77994  -2.02685
F     5.15576  -0.51253  -0.36600
F     0.98572  -2.73629  -4.01674
F     0.37816  -3.93677  -2.33726
F     2.45948  -3.78425  -2.85683
Cl   -0.46929   1.35099  -1.83926
O     0.57635  -1.14366   1.04037
