57

Au    0.00000   0.00000   0.00000
P    -2.23171   0.21143  -0.14943
N    -3.05937   1.39653  -0.89276
N    -3.83667   3.29528  -1.94557
N    -1.95906   2.50542  -2.77230
C    -2.89824   2.31227  -1.80391
C    -3.48436   4.09943  -3.01928
C    -2.31799   3.62323  -3.51910
C    -4.27606   5.26932  -3.48814
H    -5.33952   5.04771  -3.49217
H    -3.98241   5.52400  -4.50248
H    -4.10472   6.13932  -2.85427
C    -1.53212   4.15464  -4.66511
H    -0.47329   4.20123  -4.42754
H    -1.86796   5.16109  -4.89775
H    -1.66249   3.53637  -5.55299
C    -4.98377   3.37583  -1.05998
H    -4.72864   2.69028  -0.24392
C    -5.17697   4.77019  -0.46972
H    -5.65156   5.44719  -1.17285
H    -4.21980   5.18739  -0.16613
H    -5.81216   4.69825   0.40949
C    -6.24681   2.85024  -1.74084
H    -6.55296   3.48859  -2.56547
H    -7.05877   2.80834  -1.01988
H    -6.07051   1.84826  -2.12449
C    -0.76736   1.68771  -2.89261
H    -0.95993   0.82742  -2.23813
C    -0.54879   1.15063  -4.30449
H    -0.11323   1.89733  -4.96021
H    -1.48643   0.80299  -4.73282
H     0.13758   0.30977  -4.25238
C     0.46248   2.41405  -2.35263
H     0.78798   3.20680  -3.02079
H     1.27985   1.70869  -2.23019
H     0.24421   2.84671  -1.37824
C    -2.93317   0.33259   1.56646
H    -2.45423  -0.46775   2.14435
C    -4.44854   0.19022   1.63142
H    -4.91507   0.81190   0.87041
H    -4.81218   0.50676   2.60798
H    -4.75768  -0.84045   1.47322
C    -2.46682   1.67426   2.12328
H    -1.38222   1.75879   2.03726
H    -2.74083   1.77956   3.17158
H    -2.91841   2.48997   1.56031
C    -3.00040  -1.33890  -0.82253
H    -4.08836  -1.19971  -0.78647
C    -2.56552  -1.49976  -2.27484
H    -2.87792  -0.63845  -2.86462
H    -3.00933  -2.39328  -2.71150
H    -1.48058  -1.59276  -2.33574
C    -2.57826  -2.54301   0.00706
H    -1.49053  -2.58635   0.07279
H    -2.93000  -3.46390  -0.45592
H    -2.98034  -2.49353   1.01653
O     1.64490  -0.12962  -0.00334
