22

Cr    0.00000   0.00000   0.00000
C     1.32668   1.33587  -0.24329
O     2.05236   2.08372  -0.70649
C     0.00169   0.00035  -1.78225
C     0.00007   0.00011  -3.16355
C    -0.00070  -1.21460  -3.88481
C    -0.00303  -1.20336  -5.26135
C    -0.00456  -0.00031  -5.95546
H     0.00052  -2.14406  -3.33463
H    -0.00360  -2.13748  -5.80293
H    -0.00646  -0.00048  -7.03464
C    -1.32409  -1.33536  -0.25473
C    -1.32391   1.33563  -0.25506
C     1.32568  -1.33600  -0.24728
C    -0.00125   1.21460  -3.88518
C    -0.00358   1.20296  -5.26172
O    -2.04798  -2.08235  -0.72287
O    -2.04721   2.08247  -0.72450
O     2.05062  -2.08280  -0.71376
H    -0.00040   2.14422  -3.33527
H    -0.00457   2.13691  -5.80359
O    -0.00433  -0.00078   1.64999
