32

Zn    0.00000   0.00000   0.00000
Cl   -0.18292   0.90415   1.98225
Cl    2.02958   0.00707  -0.97905
N     4.14568  -0.46543   2.89820
C     2.86403  -0.76283   2.98947
C     2.22055  -1.64234   2.12720
C     2.97089  -2.21126   1.10580
C     4.32009  -1.89822   0.99995
C     4.85221  -1.01723   1.93041
N     2.35345  -3.08516   0.16609
C     1.45056  -3.98784   0.57803
C     0.74727  -4.76451  -0.30094
C     0.94312  -4.59846  -1.68343
C     1.93772  -3.68252  -2.08013
C     2.60626  -2.94021  -1.14923
O     0.30267  -5.23651  -2.64211
C    -0.87660  -5.98610  -2.34896
C    -2.05472  -5.06973  -2.04542
H     2.31493  -0.27195   3.78012
H     1.16396  -1.83683   2.23002
H     4.93784  -2.32645   0.22688
H     5.89660  -0.73972   1.89276
H     1.29848  -4.07657   1.64278
H     0.01737  -5.45078   0.09152
H     2.12282  -3.53360  -3.13079
H     3.30546  -2.16980  -1.43210
H    -1.05826  -6.56198  -3.25951
H    -0.68889  -6.68498  -1.52696
H    -1.81269  -4.37142  -1.24586
H    -2.30969  -4.49046  -2.92869
H    -2.91562  -5.66450  -1.75457
O    -0.59404  -1.53464  -0.12043
