21

Cl    0.57561   1.32235  -1.71052
C    -2.63515  -1.31089  -0.05480
C    -1.75300  -2.14425   0.89402
C    -3.68145  -2.18318  -0.74514
C    -1.18600  -0.57909   2.69761
H    -2.21376   0.14094  -1.49147
H    -0.35026  -0.00994   3.10197
H    -1.97661   0.11843   2.42444
H    -1.56657  -1.26221   3.46532
H    -1.44738  -1.28875  -1.74780
H    -3.14060  -0.53130   0.52567
H    -1.26047  -2.92689   0.30896
H    -2.38164  -2.62442   1.65557
H     0.07261  -1.87827   1.80096
H    -4.33639  -2.64748  -0.01326
H    -4.29221  -1.58384  -1.41612
H    -3.20135  -2.97025  -1.32352
N    -1.75793  -0.64038  -1.02323
N    -0.72245  -1.30616   1.51743
Pt    0.00000   0.00000   0.00000
O     1.33058   0.37750   0.89975
