39

Cl    1.32927   0.45827   2.04998
C    -1.32047   2.56976   0.26854
C    -2.43498   3.18908   0.83841
C    -2.63875   4.54178   0.65903
C    -1.73634   5.29536  -0.08776
C    -0.63407   4.69924  -0.65617
C    -0.39173   3.32571  -0.49907
C     0.74920   2.70036  -1.08912
C     2.25030   1.00876  -1.66979
H    -3.12457   2.58824   1.41509
H    -3.50145   5.01696   1.10008
H    -1.90455   6.35302  -0.22057
H     0.06311   5.28685  -1.23534
H     1.40995   3.35578  -1.65884
H     1.99077   0.24435  -2.40875
H     2.75281   1.83897  -2.17642
H     2.93346   0.57549  -0.93267
Mo    0.00000   0.00000   0.00000
N     1.04544   1.43575  -0.99565
O    -1.06143   1.29107   0.39626
N    -1.04579  -1.43586   0.99517
O     1.06103  -1.29118  -0.39686
C    -0.74972  -2.70052   1.08835
C    -2.25062  -1.00902   1.66925
C     1.31995  -2.56999  -0.26931
C     0.39119  -3.32591   0.49831
H    -1.41042  -3.35593   1.65817
H    -1.99113  -0.24529   2.40871
H    -2.75356  -1.83916   2.17526
H    -2.93361  -0.57504   0.93259
C     2.43445  -3.18936  -0.83917
C     0.63352  -4.69944   0.65543
C     2.63819  -4.54205  -0.65979
H     3.12407  -2.58852  -1.41582
C     1.73577  -5.29560   0.08701
H    -0.06364  -5.28703   1.23465
H     3.50087  -5.01725  -1.10085
H     1.90396  -6.35327   0.21983
O    -0.88252  -0.30407  -1.36059
