26

Pd    0.00000   0.00000   0.00000
S     1.59677   1.81754  -0.51876
C     0.31223   2.95800  -1.22365
C    -0.88560   2.20082  -1.82608
C    -1.43497   1.31578  -0.72284
C    -1.86819  -0.00554  -0.89687
C    -1.90061  -0.82801   0.26314
C     1.50819   2.21365   1.26101
C    -1.94201   3.21427  -2.28561
C    -0.39374   1.37171  -3.01815
H     0.81799   3.55077  -1.98628
H    -0.00268   3.61605  -0.41431
H    -1.77794   1.85905   0.16522
H    -1.92967  -0.46477  -1.88039
H    -2.24694  -0.40703   1.21114
H    -2.10126  -1.88726   0.13883
H     0.49953   2.03556   1.65477
H     2.20686   1.52926   1.74170
H     1.81882   3.24369   1.42033
H    -2.80556   2.69213  -2.69043
H    -2.27422   3.83207  -1.45401
H    -1.53637   3.86326  -3.05799
H     0.26919   0.56354  -2.67569
H    -1.22982   0.93678  -3.56007
H     0.16287   2.00262  -3.70771
O     1.05508  -0.94916   0.84167
