23

Cl   -2.11625   0.28976  -0.44516
C    -1.24907  -0.20215   2.73607
C     2.68054   0.93893   0.50753
C    -1.74416  -0.88950   5.10246
C     5.09290   1.63006   0.50067
H    -2.11336  -1.88947   4.87399
H     5.15094   1.91503   1.55125
H    -2.59134  -0.22312   5.26708
H     5.64211   2.34605  -0.10759
H    -1.12254  -0.92284   5.99493
H     5.52115   0.63536   0.37485
H    -2.20017  -0.36028   2.27197
H     2.67311   0.23122   1.30909
N    -0.93647  -0.40502   4.02498
N     3.73116   1.63767   0.06157
N     0.34375  -0.07610   4.17453
N     3.29987   2.39854  -0.94469
N     0.78540   0.30007   3.05354
N     2.06994   2.18006  -1.10368
N    -0.16929   0.23993   2.13026
N     1.64089   1.28219  -0.22440
Zn    0.00000   0.00000   0.00000
O     0.85322  -1.40897   0.09659
