58

Pd    0.00000   0.00000   0.00000
Br   -1.21606  -0.45771   2.06018
C    -0.95587   2.91899   0.22475
C    -0.31470   2.78988  -1.01493
C     1.05976   3.37099  -1.22819
H     1.21367   4.24583  -0.60191
H     1.19069   3.68377  -2.26121
H     1.84398   2.64888  -0.99419
C    -0.95767   2.09637  -2.04959
C    -2.28601   1.67859  -1.90478
C    -3.03269   0.98002  -3.00152
H    -2.98723   1.54279  -3.93333
H    -4.07585   0.86219  -2.72189
H    -2.62322  -0.01595  -3.16695
C    -2.93261   1.93245  -0.70314
H    -3.96006   1.61878  -0.58897
C    -2.28486   2.50695   0.38163
C    -3.03117   2.67489   1.67130
H    -4.07524   2.40894   1.53168
H    -2.98217   3.70357   2.02682
H    -2.62418   2.01429   2.43617
C    -0.15117   3.38174   1.40863
H     0.30203   4.36540   1.23680
H    -0.78920   3.45564   2.29278
N     0.91007   2.43508   1.71710
C     1.09378   1.19155   1.22919
N     2.08823   0.65599   1.97023
C     2.53150   1.55829   2.90091
H     3.30781   1.33417   3.60220
C     1.79109   2.67519   2.74168
H     1.80686   3.60504   3.27193
C     2.53247  -0.72075   1.89752
H     1.68564  -1.32645   1.53914
H     2.76506  -1.04792   2.91573
C     3.75707  -1.34935  -0.27291
C     3.76705  -0.86629   1.03608
C     4.98121  -0.48356   1.60204
H     4.99629  -0.12875   2.62216
C     6.16590  -0.55551   0.89713
H     7.09155  -0.25034   1.36087
C     6.15607  -1.03501  -0.40108
H     7.07393  -1.10915  -0.96414
C     4.96172  -1.43234  -0.96784
H     4.96149  -1.82554  -1.97388
C     2.51003  -1.78931  -1.00703
H     2.72890  -2.70003  -1.57317
H     1.66967  -2.01184  -0.33110
N     2.06250  -0.78397  -1.94880
C     1.08012   0.11433  -1.71848
N     0.89315   0.75221  -2.89168
C     1.75968   0.26476  -3.83778
H     1.77025   0.63332  -4.84280
C     2.49452  -0.70003  -3.24602
H     3.25952  -1.33282  -3.64479
C    -0.15403   1.69480  -3.25602
H    -0.79527   1.20178  -3.99077
H     0.31361   2.55919  -3.74244
O    -0.83789  -1.13164  -0.86013
