36

Pd    0.00000   0.00000   0.00000
S     0.62994   2.64273   1.71742
P     2.23243  -0.17003  -0.36484
P    -2.18805   0.25044   0.54205
C     0.22561   1.97586   0.15827
C     0.12580   2.96372  -0.76884
H    -0.11749   2.78145  -1.80702
C     0.37092   4.26157  -0.24599
H     0.33350   5.15741  -0.84175
C     0.65622   4.24971   1.07636
H     0.88149   5.06840   1.72968
C     3.24470   1.33591  -0.61510
H     3.13349   1.99926   0.24184
H     2.90365   1.86026  -1.50756
H     4.29347   1.06194  -0.72969
C     3.03502  -0.91920   1.09701
H     2.79821  -0.31552   1.97603
H     4.11548  -0.95601   0.95732
H     2.64846  -1.92797   1.24720
C     2.81254  -1.22489  -1.74116
H     2.42861  -2.23695  -1.61882
H     3.90246  -1.24287  -1.75576
H     2.44111  -0.82070  -2.68380
C    -3.42537  -0.58803  -0.51128
H    -3.22393  -1.65841  -0.53644
H    -3.35733  -0.19444  -1.52645
H    -4.42593  -0.41002  -0.11676
C    -2.91291   1.92612   0.68828
H    -2.35506   2.50319   1.42504
H    -3.95587   1.85306   0.99665
H    -2.84983   2.43573  -0.27301
C    -2.51989  -0.44285   2.20079
H    -1.86392   0.04546   2.92469
H    -2.30789  -1.51252   2.19817
H    -3.56083  -0.27456   2.47725
O    -0.16498  -1.64131  -0.03700
