40

Pd    0.00000   0.00000   0.00000
Se    1.47537   0.38166   1.77067
Cl    0.03250   2.24960  -0.07768
N     0.04007  -2.17071   0.10515
C     0.51077  -1.81175   5.17051
H     0.37291  -1.57118   6.21343
C     0.45922  -3.39387   3.37192
H     0.27613  -4.39991   3.02139
C     1.09613  -1.12976   2.93409
C     0.28979  -3.09974   4.71349
H    -0.02135  -3.87423   5.39755
C     0.90931  -0.83221   4.28045
H     1.08330   0.18075   4.61944
C    -1.32050  -2.52546   0.52003
H    -1.44703  -3.61557   0.56088
H    -2.02743  -2.10844  -0.20103
H    -1.52924  -2.10639   1.50983
C     0.29614  -2.67997  -1.24489
H     0.20275  -3.77335  -1.27210
H     1.30528  -2.40147  -1.55882
H    -0.42333  -2.23657  -1.93511
C     0.85442  -2.42102   2.46113
C     1.02661  -2.78751   1.01125
H     0.95157  -3.88277   0.92025
H     2.02773  -2.49012   0.67605
C     3.04693  -0.12703  -0.56756
H     2.14584   0.23244  -1.08712
C     3.06998  -0.19732   0.82452
C     4.22700  -0.58745   1.50285
C     4.16497  -0.48947  -1.29692
H     4.14495  -0.43361  -2.37454
C     5.30486  -0.91936  -0.63719
H     6.17881  -1.21006  -1.20007
C     5.33138  -0.96025   0.74547
H     6.23049  -1.27589   1.25464
C     4.28499  -0.61023   2.99710
H     3.73237   0.23624   3.40677
H     5.31472  -0.56233   3.34132
H     3.83503  -1.52439   3.38632
O    -1.04644  -0.03014  -1.27537
