48

Pd    0.00000   0.00000   0.00000
Se    1.70394  -1.74971  -0.17227
N     0.84997   0.41124   1.73289
N     0.51662  -2.66692  -2.76846
N     0.52840   1.49064   2.33139
N     1.26670  -1.70832  -2.41743
C     1.89868  -1.74288   1.80842
C     0.61713  -3.26433  -0.42614
C     2.58838  -2.72137   2.50898
H     2.90747  -3.61492   1.98750
C     0.16862  -4.08971   0.59887
H     0.43163  -3.86666   1.62443
C     2.86150  -2.55831   3.85599
H     3.38397  -3.33322   4.39698
C    -0.63402  -5.17283   0.30902
H    -0.98594  -5.80258   1.11270
C     2.47990  -1.39177   4.50730
H     2.70333  -1.26436   5.55579
C    -1.00546  -5.45478  -1.00578
H    -1.63564  -6.30666  -1.21082
C     1.82600  -0.39065   3.82124
H     1.53200   0.52849   4.30431
C    -0.59051  -4.63990  -2.03045
H    -0.88554  -4.81503  -3.05285
C     1.53030  -0.55801   2.46371
C     0.22474  -3.53198  -1.76122
C    -0.26798   2.30691   1.58697
C     1.50516  -0.67559  -3.30438
C    -0.60992   3.58647   2.04393
H    -0.20634   3.93179   2.98326
C     1.68040   0.61215  -2.78636
H     1.57089   0.79481  -1.70620
C    -1.44296   4.37206   1.27980
H    -1.71306   5.36127   1.61893
C     1.93443   1.66435  -3.64361
H     2.05038   2.66144  -3.24562
C    -1.93875   3.89767   0.06967
H    -2.59183   4.52349  -0.52132
C     2.03420   1.44615  -5.00963
H     2.23779   2.27298  -5.67330
C    -1.61296   2.62726  -0.38867
H    -2.02144   2.27288  -1.32625
C     1.86274   0.16973  -5.52369
H     1.93431   0.00296  -6.58827
C    -0.78310   1.80862   0.35776
C     1.59170  -0.88903  -4.68151
H     1.45152  -1.88974  -5.06027
O    -1.10158  -0.42917  -1.15101
