46

Co    0.00000   0.00000   0.00000
O    -0.89598  -0.80378   2.46790
O    -1.14166   1.68420  -1.84573
O     1.09583   0.78646  -2.61451
N     1.26862   0.06276  -1.49042
O     1.34704  -1.81640   1.88034
N    -1.34375   1.03203  -0.75440
N    -1.22201  -0.19819   1.38048
N     0.76919   1.56899   0.85978
N     1.39104  -1.19477   0.68568
C     2.34691  -1.45877  -0.13555
C    -2.45900   1.03639  -0.09416
C    -3.68125   1.75270  -0.56537
H    -3.46819   2.21760  -1.52508
H    -3.97843   2.51867   0.14980
H    -4.50527   1.05114  -0.68095
C     3.43252  -2.44386   0.13754
H     3.30454  -2.85635   1.13484
H     4.40927  -1.96911   0.06339
H     3.38925  -3.25297  -0.58950
C     2.27710  -0.73148  -1.39139
C    -2.38818   0.31850   1.15069
C     3.29022  -0.93149  -2.46716
H     3.05446  -0.28823  -3.31079
H     3.27954  -1.96883  -2.79690
H     4.28911  -0.69927  -2.10170
C    -3.52910   0.20923   2.10735
H    -3.21208  -0.37788   2.96609
H    -4.37395  -0.28202   1.62818
H    -3.84778   1.19571   2.44148
C     1.57294   3.81469   0.72243
H     1.72841   4.69815   0.12541
C     0.99008   2.69135   0.16895
H     0.67297   2.70803  -0.86529
C     1.71091   2.61925   2.78403
H     1.98241   2.56783   3.82641
C     1.12157   1.54452   2.14905
H     0.90948   0.64143   2.70539
C     1.95128   3.78587   2.06182
C     2.58278   4.94813   2.74085
O     2.72911   6.00466   1.93482
O     2.92905   4.94872   3.89310
H     3.13938   6.74007   2.41665
H     0.15065   1.20768  -2.49106
H     0.41950  -1.53947   2.26699
O    -0.67893  -1.31814  -0.72392
