38

Pt    0.00000   0.00000   0.00000
N    -0.82268   1.41254   1.28558
H    -1.84261   1.31378   1.26545
H    -0.52085   1.30419   2.25853
N     0.70827  -1.23683  -1.30438
C     1.05631   2.93029   1.07704
H     1.61343   2.06461   0.70112
H     1.21778   3.01681   2.15036
H     1.43495   3.82482   0.59053
C    -0.42589   2.73379   0.75629
H    -1.01519   3.54057   1.21773
C    -0.63369   2.68390  -0.73927
C    -0.96302   3.80179  -1.48496
H    -1.10726   4.75640  -0.99647
C    -1.10913   3.69464  -2.85674
H    -1.36741   4.56773  -3.43921
C    -0.93046   2.47272  -3.48955
C    -0.60148   1.35705  -2.72587
H    -0.46855   0.41044  -3.23795
C    -0.44423   1.43467  -1.34871
C    -1.06704   2.35644  -4.97879
H    -1.44787   1.37618  -5.25843
H    -0.09381   2.48711  -5.45418
H    -1.73729   3.11961  -5.36806
C     1.96093  -1.13530  -1.75974
H     2.53133  -0.27603  -1.42117
C     2.51883  -2.06802  -2.60825
H     3.53758  -1.94421  -2.94140
C     1.76881  -3.16480  -3.02682
C     0.46345  -3.25263  -2.54921
H    -0.16855  -4.07966  -2.83340
C    -0.02447  -2.28254  -1.69962
H    -1.03419  -2.34165  -1.30559
C     2.34857  -4.20897  -3.92137
H     2.88716  -4.94409  -3.32252
H     3.05276  -3.76988  -4.62420
H     1.56792  -4.72842  -4.47125
O     0.35965  -1.01624   1.24916
