30

Pt    0.00000   0.00000   0.00000
O    -1.32288   4.18661   1.93014
O    -3.33544   3.98389   0.97819
H    -3.45883   4.90518   1.25794
N    -0.63259   1.56233   1.29093
H     0.08453   2.26872   1.09345
C    -0.61689   1.28150   2.73123
H    -1.05000   2.12509   3.28029
H     0.42720   1.18504   3.03902
C    -1.36300  -0.00033   3.11083
H    -1.48896  -0.00040   4.19462
H    -2.36063  -0.00028   2.67093
C    -1.88949   2.12857   0.80469
H    -2.74270   1.50305   1.07239
H    -1.83902   2.18552  -0.29088
C    -2.12464   3.53967   1.31319
O    -1.32279  -4.18704   1.93007
O    -3.33534  -3.98441   0.97815
H    -3.45906  -4.90545   1.25871
N    -0.63243  -1.56276   1.29078
H     0.08458  -2.26928   1.09334
C    -0.61682  -1.28212   2.73114
H    -1.04997  -2.12571   3.28024
H     0.42723  -1.18556   3.03901
C    -1.88931  -2.12907   0.80452
H    -2.74269  -1.50365   1.07198
H    -1.83869  -2.18600  -0.29099
C    -2.12408  -3.54060   1.31202
Cl    0.65683   1.64663  -1.38354
O     0.48156  -1.20930  -1.01400
