45

Ag    0.00000   0.00000   0.00000
N    -0.26545  -1.74843   2.68800
N    -1.08517  -2.62708   3.28432
C    -2.23592  -2.02303  -1.06745
H    -1.21159  -2.33779  -1.22505
N    -1.86160  -2.05246   1.32791
C    -4.40841  -1.45283  -1.95219
C    -2.06749  -2.81704   2.45110
C    -0.70060  -1.36069   1.48478
C    -3.07714  -1.81010  -2.14281
H    -2.69408  -1.92153  -3.14590
C    -3.61144  -3.92970   3.99509
H    -3.12244  -3.39646   4.79538
C    -4.05344  -1.52596   0.43332
H    -4.42919  -1.40858   1.43929
C    -3.17367  -3.73008   2.68661
C     0.95808  -1.31039   3.35281
C    -2.72695  -1.87833   0.22652
C    -4.82502  -5.29334   1.91150
H    -5.29066  -5.83206   1.09993
C     1.05801  -2.02615   4.69832
H     0.20762  -1.77651   5.32650
H     1.97052  -1.72426   5.20393
H     1.07144  -3.10329   4.55723
C    -5.29506  -1.20510  -3.13161
H    -6.33494  -1.11451  -2.82893
H    -5.20593  -2.01338  -3.85510
H    -4.99853  -0.28184  -3.62863
C    -3.77976  -4.42891   1.64481
H    -3.42688  -4.31066   0.63115
C    -4.88326  -1.32082  -0.65350
H    -5.91313  -1.04286  -0.48515
C    -4.65708  -4.79490   4.25193
H    -4.99600  -4.94151   5.26647
C     2.15288  -1.67448   2.46928
H     2.18283  -2.74683   2.28943
H     3.07607  -1.37754   2.95823
H     2.08660  -1.15703   1.50771
C     0.88830   0.20407   3.56065
H     0.83526   0.71886   2.59712
H     1.77532   0.54461   4.08662
H     0.01185   0.46908   4.14758
C    -5.27081  -5.47275   3.21058
H    -6.09053  -6.14590   3.41191
O     0.54967   1.03777  -1.15905
