45

Au    0.00000   0.00000   0.00000
C    -2.71958  -1.84644   0.09055
N    -0.23366  -1.69719   2.53975
N    -1.05465  -2.57140   3.14117
C     1.09299  -2.01989   4.53791
H     0.24624  -1.78103   5.17515
H     2.00848  -1.73233   5.04651
H     1.10315  -3.09379   4.37336
C    -4.43151  -1.48823  -2.07236
C     2.18912  -1.62335   2.32120
H     2.21118  -2.69200   2.11794
H     3.11126  -1.34693   2.82414
H     2.13569  -1.08787   1.37578
C    -3.15659  -3.66081   2.56758
C    -0.68222  -1.31537   1.34243
C    -2.26709  -2.10000  -1.19789
H    -1.25497  -2.43969  -1.35567
C    -3.12273  -1.91918  -2.26626
H    -2.76771  -2.10958  -3.26779
C    -3.57353  -3.85520   3.88378
H    -3.06448  -3.32793   4.67540
C    -2.04394  -2.76016   2.31645
N    -1.84405  -1.99845   1.19015
C    -3.78974  -4.35167   1.53666
H    -3.45460  -4.23778   0.51676
C    -4.83967  -5.20435   1.82248
H    -5.32662  -5.73694   1.01949
C    -5.26365  -5.37954   3.12939
H    -6.08673  -6.04393   3.34537
C     0.99459  -1.27253   3.20935
C    -4.02259  -1.42060   0.30378
H    -4.36682  -1.22235   1.30831
C    -5.33425  -1.27971  -3.24704
H    -6.34970  -1.06112  -2.92774
H    -5.34639  -2.16400  -3.88205
H    -4.97299  -0.44594  -3.84805
C     0.92500   0.23512   3.45927
H     0.87261   0.77853   2.51835
H     1.81164   0.55719   3.99766
H     0.04848   0.48185   4.05472
C    -4.86859  -1.24792  -0.77598
H    -5.88041  -0.91153  -0.60508
C    -4.62407  -4.70852   4.15953
H    -4.94605  -4.85158   5.18001
O     0.53756   1.08709  -1.11882
