28

Tc    0.00000   0.00000   0.00000
O     0.42133  -0.76029  -1.38271
O     0.21804   1.96267  -0.18291
O    -0.54021  -1.16427   1.45934
N     1.61457   0.14180   1.32125
C     2.57217   1.01916   1.23083
C     2.52120   2.20865   0.47046
C     3.66520   3.03563   0.42011
C     3.65112   4.22855  -0.24856
C     2.47860   4.65100  -0.88667
C     1.34653   3.87969  -0.85246
C     1.32849   2.63624  -0.18484
C     0.41751  -1.61485   2.24224
C     0.25622  -2.71118   3.09197
C     1.30212  -3.08871   3.90736
C     2.50863  -2.39532   3.89005
C     2.68650  -1.30870   3.05883
C     1.64468  -0.91661   2.22007
H     3.47609   0.86649   1.81782
H     4.56185   2.70190   0.92264
H     4.53504   4.84573  -0.28384
H     2.46750   5.59520  -1.40992
H     0.43546   4.19081  -1.33826
H    -0.68601  -3.23489   3.09306
H     1.18441  -3.93411   4.56782
H     3.31642  -2.70963   4.53248
H     3.63198  -0.78743   3.05781
O    -1.60922   0.32960  -0.15584
