25

Zn    0.00000   0.00000   0.00000
N     0.78893   1.30159  -1.40355
N     2.96979   1.97286  -2.27274
C     1.81540   1.62610  -1.82498
C     4.16949   1.42664  -1.67073
H     4.78762   2.23688  -1.27816
H     4.73978   0.87209  -2.41908
H     3.90629   0.75352  -0.85562
C     3.11683   2.87872  -3.38775
H     2.13820   3.20154  -3.73734
H     3.64172   2.38066  -4.20719
H     3.69436   3.75491  -3.08165
Br   -2.07537  -0.73986  -0.82793
N    -0.78871   1.29913   1.40545
N    -2.96909   1.97215   2.27445
C    -1.81499   1.62444   1.82668
C    -4.16928   1.42466   1.67461
H    -4.78814   2.23417   1.28168
H    -4.73852   0.87091   2.42437
H    -3.90679   0.75061   0.86004
C    -3.11507   2.88054   3.38756
H    -2.13606   3.20380   3.73569
H    -3.63951   2.38446   4.20849
H    -3.69252   3.75624   3.07994
O     1.45487  -0.51940   0.57971
