69

Pd    0.00000   0.00000   0.00000
Br    0.41385   0.24151   2.39958
N    -2.63454   1.57832   0.14269
N    -0.84142   2.70668  -0.23195
N     1.43698  -1.36498  -0.01768
C    -1.30772   1.46195  -0.00394
C    -3.00145   2.89486  -0.00801
H    -4.02175   3.21006   0.06219
C    -1.87391   3.60503  -0.23850
H    -1.72650   4.65024  -0.41694
C     0.56477   2.94360  -0.30836
C     1.23152   3.40027   0.83724
C     2.61451   3.46613   0.80778
H     3.14237   3.79051   1.69238
C     3.33824   3.10404  -0.32297
C     2.64798   2.74216  -1.46863
H     3.19186   2.51315  -2.37464
C     1.25710   2.67047  -1.49241
C     0.46684   3.81022   2.05680
H     1.14223   4.20545   2.80974
H    -0.05402   2.95600   2.48676
H    -0.27440   4.57060   1.81367
C     4.83596   3.14286  -0.29982
H     5.21746   2.57751   0.54922
H     5.18347   4.17028  -0.19593
H     5.25275   2.72962  -1.21507
C     0.55634   2.42528  -2.79521
H    -0.51030   2.25989  -2.66656
H     0.97729   1.56508  -3.31144
H     0.69312   3.29714  -3.43658
C    -3.61123   0.54413   0.46881
C    -4.67034   0.47246  -0.61426
C    -4.50852   0.15493  -1.94419
H    -3.53632  -0.08243  -2.34998
C    -5.63598   0.14493  -2.75699
H    -5.53259  -0.10166  -3.80276
C    -6.88699   0.44370  -2.24096
H    -7.74921   0.42541  -2.89155
C    -7.04934   0.76781  -0.90195
H    -8.02640   1.00138  -0.50617
C    -5.93135   0.78496  -0.08660
C    -5.77933   1.10531   1.32742
C    -6.70487   1.48902   2.28218
H    -7.75207   1.57581   2.03418
C    -6.25737   1.76102   3.56673
H    -6.96663   2.06140   4.32414
C    -4.91459   1.65587   3.89357
H    -4.58949   1.87603   4.89919
C    -3.97961   1.26645   2.94192
H    -2.93371   1.18053   3.19865
C    -4.42452   0.99103   1.66840
C    -2.95322  -0.82382   0.71847
H    -2.45218  -1.15445  -0.20185
H    -2.22250  -0.72514   1.53394
C    -3.98379  -1.87818   1.10902
H    -3.48877  -2.83162   1.27489
H    -4.50062  -1.59682   2.02398
H    -4.72178  -2.00677   0.32005
C     1.20832  -2.65568   0.19457
H     0.17158  -2.94316   0.35860
C     2.22900  -3.58991   0.20670
H     2.00575  -4.62982   0.38382
C     3.52896  -3.16131  -0.01192
H     4.34805  -3.86423  -0.00921
C     3.75795  -1.81100  -0.23251
H     4.75370  -1.43426  -0.40487
C     2.68119  -0.94336  -0.22552
H     2.81077   0.12884  -0.38585
O    -0.38840  -0.49311  -1.52594
