48

Au    0.00000   0.00000   0.00000
P    -0.07122   2.22931   0.30586
N    -0.19133   3.58232  -2.17033
N    -1.03736   4.29002  -2.90198
N    -2.16185   4.36456  -2.29933
N     2.64771   2.51283   0.85994
N     3.64656   3.36833   0.74216
N     3.18852   4.49636   0.34424
C    -0.80113   3.19897  -1.00963
C    -2.08536   3.71382  -1.13264
H    -2.91206   3.65059  -0.45475
C     1.13387   3.35804  -2.57913
C     1.73748   2.12550  -2.36761
H     1.16989   1.30172  -1.94844
C     3.06181   1.94586  -2.72207
H     3.52882   0.98755  -2.55281
C     3.77543   2.98598  -3.29427
H     4.81210   2.84553  -3.55787
C     3.15719   4.20205  -3.53636
H     3.70954   5.00805  -3.99331
C     1.83472   4.39461  -3.18329
H     1.33581   5.33450  -3.35976
C     1.47500   3.11518   0.51320
C     1.86700   4.40719   0.17779
H     1.28398   5.24095  -0.15757
C     2.82699   1.19498   1.30599
C     1.94774   0.65927   2.24104
H     1.16518   1.28022   2.66230
C     2.11741  -0.64950   2.65943
H     1.43661  -1.07237   3.38152
C     3.14779  -1.41470   2.14068
H     3.26158  -2.44087   2.45202
C     4.03053  -0.86719   1.22312
H     4.83543  -1.46524   0.82494
C     3.88028   0.44200   0.80506
H     4.55638   0.89237   0.09488
C    -1.07912   2.75662   1.71892
C    -1.14213   4.09394   2.10296
H    -0.57602   4.83934   1.56195
C    -1.93300   4.45785   3.17592
H    -1.98620   5.49385   3.47476
C    -2.65701   3.49667   3.86577
H    -3.27431   3.78785   4.70204
C    -2.59017   2.16587   3.48733
H    -3.15262   1.41824   4.02567
C    -1.79985   1.79238   2.41480
H    -1.73469   0.75561   2.10637
O     0.14101  -1.63823  -0.13716
