70

C     2.07178  -0.92421   1.51497
C     1.11585  -0.37813   2.44965
C    -1.95651   1.15000  -1.51402
C    -0.95074   0.70124  -2.44819
C     3.37141  -1.47027   1.93122
C     3.80751  -2.70052   1.44890
H     3.18596  -3.26140   0.76709
C     5.03223  -3.20568   1.84466
H     5.36202  -4.16335   1.46973
C     5.83277  -2.48711   2.71591
H     6.78889  -2.88386   3.02353
C     5.41007  -1.25347   3.18424
H     6.03828  -0.68362   3.85248
C     4.18668  -0.74301   2.79586
H     3.86747   0.22750   3.14408
C     1.35461  -0.35478   3.89925
C     1.75520  -1.51013   4.56512
H     1.86937  -2.43489   4.01851
C     1.99247  -1.47366   5.92595
H     2.30039  -2.37254   6.43900
C     1.84018  -0.28908   6.62817
H     2.03319  -0.26343   7.69030
C     1.43864   0.86030   5.96821
H     1.31898   1.78455   6.51298
C     1.18879   0.83096   4.60899
H     0.88380   1.72655   4.09017
C    -3.15847   1.88730  -1.92897
C    -4.41253   1.51890  -1.45142
H    -4.50559   0.68240  -0.77514
C    -5.53756   2.21988  -1.84465
H    -6.50800   1.92533  -1.47323
C    -5.42095   3.29494  -2.70890
H    -6.30116   3.84089  -3.01448
C    -4.17209   3.67590  -3.17269
H    -4.07575   4.52275  -3.83564
C    -3.04347   2.97931  -2.78657
H    -2.06889   3.28999  -3.13110
C    -1.06627   0.92017  -3.89652
C    -0.00649   1.48829  -4.59739
H     0.89593   1.76192  -4.07294
C    -0.12506   1.72093  -5.95482
H     0.69518   2.17185  -6.49261
C    -1.28925   1.37801  -6.62183
H    -1.37849   1.55993  -7.68247
C    -2.33989   0.79905  -5.92861
H    -3.24666   0.52564  -6.44729
C    -2.23456   0.57258  -4.56955
H    -3.05204   0.11711  -4.02983
C    -0.43923  -2.73884  -0.76000
H     0.44474  -2.58362  -1.36316
C    -1.07972  -3.96957  -0.75576
H    -0.71748  -4.78553  -1.36402
C    -2.59042  -3.20361   0.72266
H    -3.46638  -3.39159   1.32629
C    -1.96704  -1.96412   0.73850
H    -2.36071  -1.16102   1.34626
N     0.02826   0.05695   1.89782
N    -1.68057   0.85284  -0.27360
N     0.03654   0.07000  -1.89737
N     1.67378  -0.86567   0.27353
N    -0.88373  -1.72712  -0.00781
N    -2.15166  -4.20528  -0.01943
O     2.33576  -1.35782  -0.70683
O     1.01127  -0.45760  -2.68026
O    -0.97320   0.53233   2.68046
O    -2.47058   1.09463   0.70562
Co    0.00000   0.00000   0.00000
H     1.70962  -0.82984  -2.01909
H    -1.68115   0.88575   2.01934
O     0.75118   1.46908   0.00671
