43

Zn    0.00000   0.00000   0.00000
P     0.68607   1.81944  -3.43804
N    -1.09518   1.78895  -0.56317
Cl   -1.63171  -1.32625   0.61567
Cl    1.55233   1.09364   1.18360
O    -1.77208   3.59298  -1.67358
C    -1.12517   1.69796  -3.01405
H    -1.69005   2.25129  -3.76684
H    -1.43420   0.65410  -2.97118
C    -1.32135   2.32821  -1.68817
C    -1.40656   2.74307   0.48176
H    -0.50316   2.92602   1.06771
H    -2.16527   2.31368   1.13815
C    -1.89971   3.97909  -0.29957
H    -2.94861   4.21759  -0.10865
H    -1.28876   4.86888  -0.13042
C     0.53619   3.44617  -4.33894
H     1.52421   3.83203  -4.58533
H     0.01512   4.18878  -3.73731
H    -0.01797   3.29958  -5.26639
C     1.91412   2.32697  -2.20009
C     1.68799   3.47096  -1.44379
H     0.78424   4.04687  -1.57674
C     2.61883   3.86180  -0.49939
H     2.42826   4.72991   0.11375
C     3.78406   3.13470  -0.32925
H     4.49976   3.43337   0.42072
C     4.02395   2.01565  -1.10883
H     4.93104   1.44640  -0.97540
C     3.08962   1.60267  -2.03916
H     3.25396   0.70969  -2.62466
C     1.23932   0.83258  -4.85211
C     2.48603   1.11471  -5.39598
H     3.10813   1.87927  -4.95148
C     2.93009   0.40117  -6.49507
H     3.90496   0.60754  -6.91084
C     2.12545  -0.57496  -7.05913
H     2.47337  -1.12983  -7.91720
C     0.87653  -0.84335  -6.52181
H     0.25087  -1.60477  -6.96200
C     0.43064  -0.14495  -5.41473
H    -0.53083  -0.36816  -4.97843
O     0.53158  -0.24460  -1.54275
