37

Fe    0.00000   0.00000   0.00000
Cl    0.29474   1.11938   1.63632
N     2.21176  -0.49559  -0.25963
N     2.95411  -1.13251   1.84706
N     4.01342   0.57392   0.90156
N     0.15174   0.05989  -1.86710
C     3.02115  -0.34843   0.74961
C     1.88073  -2.05001   2.10859
H     1.45836  -2.37673   1.15964
H     1.09016  -1.57327   2.69788
H     2.26542  -2.91123   2.65471
C     3.71455  -0.56220   2.93737
H     4.30858  -1.33538   3.43107
H     3.04170  -0.11037   3.67793
C     4.58465   0.48823   2.23298
H     4.54586   1.45955   2.73409
H     5.63257   0.17270   2.16892
C     4.08638   1.79554   0.14586
H     4.89307   1.75998  -0.59166
H     4.26169   2.63322   0.82242
H     3.14391   1.96227  -0.37691
C     2.50697  -0.21305  -1.57024
C     3.77474  -0.31223  -2.13088
H     4.60732  -0.59676  -1.50541
C     3.96886  -0.06789  -3.48736
H     4.96707  -0.14100  -3.89411
C     2.92036   0.26874  -4.30745
H     3.07991   0.47446  -5.35476
C     1.61182   0.32959  -3.79582
C     1.40121   0.06936  -2.41845
C     0.48064   0.62747  -4.58813
H     0.60946   0.83646  -5.63907
C    -0.76357   0.61432  -4.00917
H    -1.65163   0.81658  -4.58702
C    -0.88954   0.29244  -2.65883
H    -1.86418   0.19279  -2.19826
O    -0.78019  -1.44760  -0.13508
