59

Ru    0.00000   0.00000   0.00000
Cl    0.33199  -1.45490   1.81402
S    -0.28173  -1.72289  -1.41810
S     2.24384  -0.01296  -0.38422
O    -2.07093  -0.01537   0.36458
O    -1.14446   4.29194   2.14780
H    -1.50853   5.18537   2.15345
O     0.85692  -2.26696  -2.15386
O     3.02301   0.95538   0.38338
N    -0.13196   1.50244   1.33420
N    -1.42662   1.62804   1.75525
H    -1.64990   2.36554   2.41515
C     0.80687   2.17552   1.88902
H     1.79357   1.96156   1.48380
C     0.77785   3.14602   2.97693
C     1.82576   3.06536   3.94804
C     1.94827   4.07517   4.93753
C     1.03172   5.14616   4.94648
H     1.13740   5.92233   5.68960
C     0.02147   5.20202   4.03168
H    -0.68298   6.02380   4.03669
C    -0.11727   4.20369   3.05332
C     2.72927   1.98289   3.98077
H     2.63431   1.18469   3.26240
C     3.71993   1.92744   4.92394
H     4.40446   1.09286   4.93349
C     3.85369   2.93813   5.88582
H     4.64244   2.87635   6.62075
C     2.98089   3.98938   5.89377
H     3.06215   4.77023   6.63630
C    -2.38023   0.85452   1.19140
C    -3.77767   1.05370   1.61166
C    -4.24781   2.27847   2.08503
H    -3.59163   3.13385   2.13588
C    -5.57522   2.41310   2.44670
H    -5.93853   3.36411   2.80647
C    -6.44253   1.33686   2.34445
H    -7.47696   1.44907   2.63203
C    -5.98302   0.12050   1.86527
H    -6.65827  -0.71724   1.77959
C    -4.65988  -0.02054   1.49527
H    -4.28484  -0.96181   1.12405
C    -1.10226  -3.13149  -0.61930
H    -2.02324  -2.76229  -0.18226
H    -0.44190  -3.48866   0.16479
H    -1.28091  -3.90419  -1.35775
C    -1.56810  -1.35901  -2.64332
H    -2.45330  -1.04714  -2.09963
H    -1.74597  -2.24184  -3.24614
H    -1.20416  -0.53786  -3.25314
C     2.72114   0.22240  -2.11512
H     2.31680  -0.60963  -2.68033
H     3.80277   0.26290  -2.16290
H     2.28293   1.15836  -2.44689
C     3.04423  -1.61344  -0.09297
H     2.64015  -2.32082  -0.80770
H     2.80578  -1.91432   0.92258
H     4.11225  -1.47606  -0.21323
O    -0.20676   1.07053  -1.23843
