59

Pd    0.00000   0.00000   0.00000
Cl   -1.78103   0.94814   0.92867
N    -0.39104  -1.83343   0.64571
C     0.34423  -2.77734   0.08172
C     0.25745  -4.17034   0.34425
H    -0.47798  -4.52869   1.05091
C     1.10816  -5.04340  -0.26190
C     2.13079  -4.58711  -1.16905
C     2.27617  -3.23672  -1.38229
H     3.10600  -2.87181  -1.96362
C     1.39298  -2.30524  -0.79767
N     1.47973  -0.98350  -0.90351
C     2.41930  -0.36806  -1.72904
C     2.53203  -0.67910  -3.08450
H     1.86342  -1.40876  -3.51933
C     3.44736  -0.01196  -3.87408
H     3.51194  -0.25146  -4.92593
C     4.27446   0.96850  -3.34080
C     4.15120   1.27963  -1.98933
H     4.77726   2.04994  -1.56381
C     3.23407   0.63135  -1.19090
H     3.13022   0.87910  -0.14136
C    -1.43728  -2.12208   1.52133
C    -2.48839  -2.97189   1.17239
H    -2.50622  -3.42017   0.18860
C    -3.52786  -3.18055   2.05549
H    -4.34778  -3.82336   1.76807
C    -3.54617  -2.56649   3.30404
C    -2.49651  -1.72071   3.64348
H    -2.49987  -1.22431   4.60245
C    -1.45811  -1.48851   2.76530
H    -0.64587  -0.81813   3.02220
N     2.93376  -5.55280  -1.70437
H     2.87143  -6.45257  -1.24738
C     3.86366  -5.45128  -2.73193
C     3.71735  -4.56455  -3.79779
H     2.84715  -3.93167  -3.85873
C     4.66418  -4.52420  -4.80144
H     4.53567  -3.83010  -5.61922
C     5.77111  -5.36522  -4.78803
C     5.89297  -6.27106  -3.74156
H     6.73491  -6.94760  -3.71650
C     4.95572  -6.31871  -2.72927
H     5.06662  -7.02905  -1.92223
C    -4.68459  -2.81017   4.24553
H    -4.73181  -3.86356   4.52163
H    -5.62939  -2.54901   3.77133
H    -4.57474  -2.21844   5.15019
O     1.07285  -6.38562  -0.03109
H     0.37390  -6.59018   0.60164
C     6.77972  -5.31618  -5.89386
H     6.39689  -5.83587  -6.77282
H     7.70900  -5.79432  -5.59480
H     6.98809  -4.28740  -6.18001
C     5.25834   1.70285  -4.19767
H     4.92415   2.72887  -4.35039
H     5.36265   1.22767  -5.16992
H     6.23412   1.74013  -3.71633
O     0.35650   1.47195  -0.65481
