55

I     1.67362  -0.04867  -2.18188
Cd    0.00000   0.00000   0.00000
N     1.92293   0.13550   1.58234
N     2.73856   1.20075   1.56000
N     1.14455   2.61212   0.53723
N    -0.79250   1.36312   2.28812
N     0.16618   2.22366   2.67416
N    -1.25803   1.89919  -0.82322
N    -0.70009   3.11891  -0.84665
C     3.71286   1.09260   2.49373
C     3.48778  -0.09646   3.15305
H     4.06439  -0.50910   3.95508
C     2.35440  -0.66135   2.54744
C     4.80748   2.08380   2.66455
H     5.43955   2.11111   1.77676
H     5.42080   1.79570   3.51389
H     4.42550   3.09046   2.83986
C     1.68161  -1.94115   2.88538
H     0.79035  -1.74991   3.48390
H     2.35295  -2.57691   3.45639
H     1.37677  -2.46384   1.97968
C     0.45422   2.08830   3.99325
C    -0.36269   1.08764   4.46466
H    -0.40844   0.70927   5.46536
C    -1.13012   0.66844   3.36248
C     1.46186   2.90836   4.71413
H     2.46119   2.74404   4.31223
H     1.46646   2.62092   5.76175
H     1.22768   3.97147   4.65039
C    -2.21242  -0.34716   3.36337
H    -2.81223  -0.24595   4.26585
H    -1.80217  -1.35585   3.34183
H    -2.84662  -0.22073   2.49067
C    -1.63129   4.07859  -1.06534
C    -2.83941   3.42713  -1.18277
H    -3.79635   3.87133  -1.36489
C    -2.55595   2.06104  -1.02160
C    -1.31620   5.52700  -1.17290
H    -0.83898   5.90229  -0.26678
H    -2.23753   6.08081  -1.32902
H    -0.65259   5.71852  -2.01616
C    -3.50231   0.91751  -1.06250
H    -3.08830   0.10201  -1.65497
H    -4.44930   1.22894  -1.49520
H    -3.68575   0.54128  -0.05558
C     0.63738   3.21936   1.74845
H     1.40453   3.82356   2.25725
H    -0.21064   3.86474   1.48427
C     2.54397   2.25470   0.59806
H     2.85606   1.90255  -0.39335
H     3.18097   3.10548   0.89491
C     0.72099   3.26617  -0.68578
H     1.22966   2.77550  -1.52490
H     0.96173   4.34105  -0.69806
O    -0.89202  -1.37795   0.16749
