55

Cd    0.00000   0.00000   0.00000
Br   -1.52933   0.00839   2.04963
N    -1.93496   0.08023  -1.51608
N    -2.75445   1.14066  -1.46816
C    -3.71516   1.05902  -2.41807
C    -3.47683  -0.10674  -3.11358
H    -4.04129  -0.49433  -3.93651
C    -2.34780  -0.68647  -2.51229
C    -4.81387   2.04946  -2.56912
H    -5.46074   2.03656  -1.69182
H    -5.41094   1.79195  -3.43958
H    -4.43636   3.06477  -2.69635
C    -1.65849  -1.94792  -2.88427
H    -0.96705  -1.76659  -3.70757
H    -2.38377  -2.69258  -3.20344
H    -1.09323  -2.33643  -2.03877
N    -1.17838   2.57841  -0.45443
N     0.68815   1.35823  -2.25683
N    -0.25169   2.24756  -2.62080
C    -0.55583   2.13875  -3.93761
C     0.23228   1.12468  -4.43156
H     0.25855   0.76163  -5.43871
C     0.99689   0.66772  -3.34397
C    -1.54880   2.99430  -4.63752
H    -2.55220   2.83106  -4.24549
H    -1.55231   2.73893  -5.69345
H    -1.30100   4.05153  -4.53969
C     2.04021  -0.38741  -3.36291
H     2.94540  -0.02863  -2.87705
H     2.26893  -0.66481  -4.38860
H     1.70998  -1.27327  -2.82256
N     1.27547   1.84199   0.79536
N     0.71100   3.05455   0.87711
C     1.64681   4.01625   1.05922
C     2.86523   3.37226   1.09045
H     3.82777   3.82190   1.22360
C     2.58234   2.00805   0.91640
C     1.32902   5.45991   1.21545
H     0.80649   5.85259   0.34237
H     2.25336   6.01663   1.34033
H     0.70511   5.62674   2.09336
C     3.52767   0.86418   0.87070
H     3.26508   0.12687   1.62952
H     4.54439   1.20617   1.04279
H     3.47513   0.36941  -0.09927
C    -0.72245   3.21917  -1.66607
H    -1.51959   3.80767  -2.14644
H     0.11381   3.88479  -1.41525
C    -2.56458   2.16780  -0.47610
H    -2.81783   1.76415   0.51264
H    -3.24511   3.00124  -0.71839
C    -0.71770   3.18910   0.77700
H    -0.97046   4.25905   0.84237
H    -1.18611   2.65155   1.61123
O     0.89651  -1.37769  -0.14406
