36

Fe    0.00000   0.00000   0.00000
Cl   -2.05161   0.12289   0.35842
N     0.66034   1.41258   0.98870
N     0.09669   1.30430  -1.37700
N     0.54610   2.52228  -0.97703
C     0.88701   2.58641   0.36617
C     1.41172   3.70088   1.02542
H     1.58392   4.61164   0.48070
C     1.71516   3.64124   2.36566
C     1.47562   2.41840   3.05447
C     0.94590   1.32489   2.32297
C     0.69931   0.10438   2.97283
H     0.29077  -0.71988   2.39105
C     0.96557  -0.04144   4.30999
H     0.77236  -0.98128   4.80354
C     1.48788   1.03176   5.03791
H     1.69489   0.90974   6.09042
C     1.73702   2.23276   4.42530
H     2.13850   3.05303   4.99895
C     2.28150   4.82993   3.07377
H     2.40361   5.66184   2.38540
H     3.25320   4.59133   3.50419
H     1.62227   5.14358   3.88227
C     0.54066   3.39237  -2.02996
C     0.07543   2.68298  -3.11541
H    -0.05830   3.05572  -4.11016
C    -0.19177   1.38031  -2.66786
C     0.95162   4.81828  -1.97751
H     0.79765   5.26062  -2.95821
H     2.00579   4.91635  -1.71924
H     0.35554   5.37231  -1.25285
C    -0.70972   0.20345  -3.41085
H    -0.76728  -0.64934  -2.73223
H    -0.05030  -0.04549  -4.24027
H    -1.70223   0.40839  -3.80781
O     1.35744  -0.85050  -0.39562
