47

Hg    0.00000   0.00000   0.00000
Br   -2.19980   0.19352   1.04657
N    -0.42314   0.98625  -2.22298
N    -0.40247  -1.72303  -1.72477
N    -0.77824   1.89549  -4.83498
N    -0.73551  -3.50657  -3.84236
C    -0.28959   3.25103  -1.45637
H    -0.14873   2.89925  -0.43826
C    -0.32030   4.58241  -1.74415
H    -0.20228   5.30722  -0.95213
C    -0.50613   5.05197  -3.06792
C    -0.65666   4.14812  -4.08591
H    -0.79825   4.46491  -5.10752
C    -0.63082   2.76282  -3.82812
C    -0.44541   2.30231  -2.48766
C    -0.57587   0.13705  -3.22742
C    -0.75404   0.60659  -4.56483
C    -0.91105  -0.33474  -5.65518
C    -1.07357   0.12120  -6.96519
H    -1.07846   1.18576  -7.13718
C    -1.22109  -0.77539  -8.00155
H    -1.34473  -0.41536  -9.01187
C    -1.20931  -2.14399  -7.75003
H    -1.32466  -2.84179  -8.56574
C    -1.05112  -2.61073  -6.46289
H    -1.03956  -3.66674  -6.24470
C    -0.90010  -1.71600  -5.40121
C    -0.73171  -2.20562  -4.04792
C    -0.56457  -1.28873  -2.96517
C    -0.40295  -3.04753  -1.50463
C    -0.57695  -3.95707  -2.59354
C    -0.57732  -5.34388  -2.34297
H    -0.71143  -6.00481  -3.18521
C    -0.41145  -5.82506  -1.07140
C    -0.23773  -4.91305  -0.00113
H    -0.10877  -5.30741   0.99613
C    -0.23297  -3.56585  -0.20449
H    -0.10137  -2.87312   0.62196
C    -0.40883  -7.28955  -0.77801
H    -1.21377  -7.53430  -0.08606
H     0.52986  -7.57520  -0.30523
H    -0.53682  -7.87172  -1.68600
C    -0.53199   6.52514  -3.31239
H    -0.68155   6.74570  -4.36546
H     0.40500   6.97564  -2.98751
H    -1.33498   6.98587  -2.73836
O     1.64987   0.01343  -0.01595
