34

Ru    0.00000   0.00000   0.00000
Cl   -1.29261   0.20526  -1.94782
C     1.22914  -0.20091   1.37677
O     2.06568  -0.34036   2.14445
N     0.04272   2.01124   0.02593
C     0.94996   2.81551  -0.51401
H     1.81613   2.32526  -0.94648
C     0.80351   4.19124  -0.53841
H     1.56071   4.80553  -0.99748
C    -0.33149   4.75365   0.03064
H    -0.47653   5.82297   0.03078
C    -1.28222   3.91918   0.58825
H    -2.17919   4.32691   1.02580
C    -1.08268   2.53983   0.56733
N    -1.64059   0.29182   0.87341
C    -2.05206   1.55898   1.05433
C    -3.31501   1.80841   1.58186
H    -3.65846   2.81770   1.73817
C    -4.14005   0.73332   1.88202
H    -5.12079   0.90677   2.29609
C    -3.72356  -0.56186   1.60696
H    -4.38453  -1.39450   1.78271
C    -2.45197  -0.76044   1.07864
N    -0.63487  -1.90806   0.06320
C    -1.86925  -2.01873   0.61377
C    -2.51865  -3.25108   0.66280
H    -3.49759  -3.32649   1.10799
C    -1.90536  -4.36633   0.12312
H    -2.39956  -5.32537   0.14547
C    -0.65127  -4.22732  -0.45676
H    -0.14620  -5.06836  -0.90288
C    -0.05255  -2.97983  -0.45993
H     0.92519  -2.81624  -0.90140
O     1.38801  -0.24786  -0.85702
