33

Pt    0.00000   0.00000   0.00000
Cl   -1.09635   1.96412  -0.18324
S    -2.04990  -0.97749  -0.00911
O    -1.96145  -2.43866   0.08954
N     0.94184  -1.88531   0.17475
H     0.18671  -2.56396   0.03697
H     1.63305  -2.00637  -0.56585
C     3.29201  -3.92582   1.92238
H     4.02928  -3.14633   2.04815
C     3.65785  -5.25336   2.06259
H     4.68090  -5.50635   2.29723
C     2.71503  -6.25335   1.89948
H     2.99922  -7.28933   2.00723
C     1.40498  -5.92068   1.59826
H     0.66524  -6.69707   1.47149
C     1.03824  -4.59406   1.46088
H     0.00964  -4.35108   1.23195
C     1.98067  -3.58400   1.62184
C     1.58070  -2.13215   1.48069
H     2.46970  -1.49465   1.52933
C     0.61685  -1.71987   2.59257
H     0.40393  -0.64962   2.51039
H     1.06497  -1.90957   3.56399
H    -0.31038  -2.28368   2.51931
C    -3.18735  -0.40683   1.28794
H    -2.75324  -0.65360   2.25076
H    -4.14290  -0.90322   1.16923
H    -3.27377   0.66803   1.17944
C    -3.08385  -0.58518  -1.44884
H    -2.57989  -0.95762  -2.33421
H    -3.16909   0.49444  -1.49126
H    -4.04947  -1.06380  -1.33828
O     1.49849   0.69061  -0.00854
