59

Pt    0.00000   0.00000   0.00000
Cl   -1.90116   0.00477  -1.34488
P    -0.84305   1.55133   1.45820
P     0.74885  -1.57359  -1.46952
F     1.34036  -3.10805   0.75887
F     3.61539  -1.32955  -2.93847
C     2.41962  -2.20149  -1.09369
C     2.50266  -2.89261   0.11328
C     3.68638  -3.35945   0.64083
H     3.68712  -3.88134   1.58373
C     4.85728  -3.11812  -0.06102
H     5.79967  -3.46272   0.33424
C     4.82626  -2.43575  -1.26368
H     5.72738  -2.23953  -1.82269
C     3.61585  -1.98151  -1.75970
C     0.88032  -0.74321  -3.07521
C     0.55525  -1.31863  -4.29503
H     0.22692  -2.34700  -4.34290
C     0.63882  -0.56146  -5.45090
H     0.38503  -1.00795  -6.40136
C     1.03732   0.76296  -5.39272
H     1.09666   1.34777  -6.29891
C     1.34797   1.34413  -4.17302
H     1.64705   2.38092  -4.12701
C     1.26329   0.59550  -3.01642
H     1.49301   1.03934  -2.04897
C    -0.10891  -3.14489  -1.77117
C    -1.37517  -3.36174  -1.24472
H    -1.85028  -2.58189  -0.66665
C    -2.01768  -4.56676  -1.46810
H    -3.00288  -4.73388  -1.05892
C    -1.39773  -5.55733  -2.21085
H    -1.89959  -6.49788  -2.38451
C    -0.12841  -5.34782  -2.72733
H     0.35829  -6.12357  -3.30066
C     0.51988  -4.14725  -2.50633
H     1.51619  -3.98646  -2.89841
C    -2.33081   2.49463   0.93277
H    -3.07119   1.75784   0.61246
H    -2.73451   3.04543   1.78655
C    -2.00716   3.42350  -0.23030
H    -2.91092   3.90723  -0.59506
H    -1.57545   2.84683  -1.04736
H    -1.29862   4.19529   0.06424
C    -1.42285   0.61933   2.93635
H    -0.55506   0.45605   3.58112
H    -2.16854   1.20216   3.48411
C    -1.99692  -0.72359   2.49184
H    -2.32703  -1.30966   3.34749
H    -1.22678  -1.29342   1.95984
H    -2.84262  -0.57911   1.82136
C     0.31084   2.81353   2.13941
H     1.15013   2.25176   2.55751
H     0.70069   3.38751   1.29372
C    -0.28576   3.74396   3.18747
H     0.48861   4.40532   3.57178
H    -0.69271   3.18047   4.02383
H    -1.07543   4.36235   2.76708
O     1.39454   0.00914   0.88186
