56

Cl   -2.17198   0.77958   0.00004
C     1.88514  -0.62445   0.00003
C     0.04960   2.50650  -2.74281
C     2.16709   2.71137   0.00003
C     2.51591   4.19326   0.00007
C     4.00004  -1.23375  -0.76485
C     2.21586  -0.62284  -2.41510
C     3.04432   0.03205  -3.32237
C     2.61710   0.24552  -4.62045
C     1.36750  -0.18995  -5.02719
C     0.54840  -0.85391  -4.12993
C     0.96627  -1.07648  -2.82949
C    -0.33977   3.16645  -1.42726
H    -0.43472   3.00219  -3.58143
H     1.12635   2.53359  -2.90159
H    -0.26768   1.46402  -2.72803
H     2.59891   2.22613  -0.88055
H     3.59786   4.31742   0.00007
H     2.12337   4.69061  -0.88313
H     4.73030  -0.53081  -1.17395
H     4.19715  -2.22287  -1.18816
H     4.01775   0.38954  -3.02034
H     3.26536   0.75852  -5.31557
H     1.03954  -0.01889  -6.04109
H    -0.42119  -1.21059  -4.44158
H     0.34194  -1.63356  -2.14550
H    -0.02305   4.21220  -1.38726
H    -1.42427   3.12436  -1.30194
N     2.63698  -0.82280  -1.08688
Pt    0.00000   0.00000   0.00000
P     0.36742   2.25354   0.00001
N     2.63698  -0.82281   1.08694
C     4.00004  -1.23377   0.76491
C    -0.33976   3.16645   1.42729
H     2.59889   2.22610   0.88061
H     2.12337   4.69057   0.88328
C     2.21586  -0.62285   2.41516
H     4.73030  -0.53084   1.17403
H     4.19714  -2.22289   1.18820
C     0.04960   2.50651   2.74285
H    -0.02302   4.21219   1.38729
H    -1.42426   3.12439   1.30197
C     3.04434   0.03206   3.32241
C     0.96627  -1.07647   2.82958
H    -0.43471   3.00220   3.58147
H     1.12635   2.53360   2.90163
H    -0.26768   1.46403   2.72808
C     2.61713   0.24556   4.62049
H     4.01776   0.38953   3.02035
C     0.54842  -0.85387   4.13002
H     0.34195  -1.63360   2.14564
C     1.36753  -0.18989   5.02726
H     3.26540   0.75857   5.31559
H    -0.42117  -1.21054   4.44169
H     1.03958  -0.01879   6.04115
O    -0.50541  -1.57069  -0.00029
