30

Au    0.00000   0.00000   0.00000
Cl    2.18244   0.11156  -0.71256
Cl    0.00721   2.14432   0.58214
N    -0.50353  -0.17213  -2.39465
N     0.02673  -2.00507  -0.45987
C     0.02554  -1.31997  -2.76448
C     0.56821  -1.52109  -4.04990
C     0.55065  -0.48207  -4.94103
C    -0.02103   0.75065  -4.57135
C    -0.54939   0.86007  -3.25250
C    -0.07698   1.87060  -5.42367
C    -0.63078   3.04151  -4.98522
C    -1.15570   3.14437  -3.68474
C    -1.12437   2.07749  -2.83150
C     0.03235  -2.37670  -1.74479
C     0.01897  -3.73008  -2.08112
C     0.01318  -4.68368  -1.08116
C     0.01229  -4.26860   0.24278
C     0.01289  -2.91248   0.50727
H     1.02995  -2.46082  -4.30618
H     0.98035  -0.59218  -5.92662
H     0.32891   1.78618  -6.42141
H    -0.66722   3.90107  -5.63781
H    -1.58432   4.08057  -3.36127
H    -1.51520   2.14086  -1.82854
H    -0.00913  -4.02221  -3.11831
H     0.00232  -5.73430  -1.32871
H     0.00593  -4.97581   1.05571
H    -0.00444  -2.53771   1.51937
O    -1.50087  -0.22175   0.64862
