46

Ni    0.00000   0.00000   0.00000
P    -1.37784   1.17763   1.22743
P     0.93898  -0.47765  -1.91907
Si    3.62868   0.73619   2.33244
O     1.83995   1.99810   0.29495
C     1.43098   0.90555   0.57210
C     2.06989  -0.05911   1.53967
C     4.89365   1.09885   0.95426
C     3.11578   2.31477   3.26808
C     4.34461  -0.53980   3.55807
C    -0.87621   2.65059   2.20672
C    -2.70521   1.89038   0.18631
C    -2.35901   0.25396   2.46785
C     1.16103  -2.25586  -2.29686
C     2.56021   0.19901  -2.46201
C    -0.13680   0.04714  -3.30504
H     1.33652  -0.34145   2.30316
H     2.33270  -0.97651   1.00215
H     5.21013   0.18847   0.45203
H     4.47071   1.76263   0.20723
H     5.78294   1.57556   1.35522
H     3.97894   2.80371   3.70950
H     2.41923   2.09469   4.07277
H     2.64017   3.02403   2.59867
H     3.64161  -0.77738   4.35029
H     4.60921  -1.47018   3.06554
H     5.24309  -0.15213   4.02591
H    -0.20510   2.34755   3.00810
H    -0.34467   3.34559   1.56014
H    -1.74893   3.14315   2.63233
H    -3.43558   2.40712   0.80825
H    -3.18486   1.08047  -0.36060
H    -2.26854   2.58851  -0.52610
H    -1.70710  -0.10594   3.26233
H    -3.12943   0.89719   2.89112
H    -2.81633  -0.60118   1.97406
H     1.46792  -2.38329  -3.33422
H     0.21430  -2.76332  -2.12250
H     1.91550  -2.68307  -1.63800
H     2.54160   1.28348  -2.37687
H     3.35140  -0.18080  -1.81823
H     2.76652  -0.08255  -3.49333
H     0.29478  -0.26412  -4.25591
H    -0.24525   1.13044  -3.28671
H    -1.11622  -0.40877  -3.17079
O    -1.23205  -1.03598  -0.36235
