31

Pd    0.00000   0.00000   0.00000
N     0.88587   0.16522   1.83615
S     2.65917   0.96878   4.22089
C     0.56319   1.47399   2.42160
C     0.91049   1.39861   3.91433
C     2.25179  -0.11295   1.88254
C     2.74238  -0.60820   3.15337
H     1.15839   2.24500   1.91984
H    -0.50903   1.69236   2.29514
H     0.76954   2.36679   4.39155
H     0.28305   0.65625   4.41255
H     2.88570   0.53541   1.28854
H     3.78678  -0.89886   3.17129
H     2.11053  -1.35205   3.63470
H     0.36314  -0.55810   2.36113
N    -0.88650  -0.16497  -1.83585
Cl   -1.31824  -1.61052   1.01744
C    -0.56382  -1.47372  -2.42129
C    -2.25246   0.11320  -1.88216
H    -0.36379   0.55836  -2.36083
C    -0.91111  -1.39830  -3.91402
H    -1.15901  -2.24475  -1.91953
H     0.50840  -1.69208  -2.29484
C    -2.74301   0.60852  -3.15303
H    -2.88635  -0.53522  -1.28820
S    -2.65977  -0.96843  -4.22063
H    -0.77015  -2.36648  -4.39124
H    -0.28364  -0.65593  -4.41220
H    -3.78742   0.89917  -3.17095
H    -2.11115   1.35239  -3.63432
O     0.93842   1.14779  -0.72419
