31

Pd    0.00000   0.00000   0.00000
Cl    0.17256  -1.42365   1.79623
S    -2.23389  -0.46716  -0.36834
N    -1.15211  -3.32187  -0.78299
O    -1.97266  -4.12031   1.13444
C    -2.00768  -1.33512  -1.94951
C    -0.87581  -2.34255  -1.81399
C    -1.88015  -3.20487   0.34979
C    -2.70425  -1.94192   0.57203
H    -1.76086  -0.57557  -2.69208
H    -2.95225  -1.82049  -2.19784
H     0.08031  -1.79433  -1.59692
H    -0.75216  -2.87786  -2.76266
H    -2.64876  -1.69279   1.63198
H    -3.74562  -2.16176   0.32159
H    -0.59799  -4.16716  -0.81352
S     2.23406   0.46685   0.36805
C     2.00856   1.33512   1.94913
C     2.70531   1.94107  -0.57278
C     0.87737   2.34326   1.81329
H     1.76137   0.57583   2.69184
H     2.95344   1.82003   2.19724
C     1.88412   3.20566  -0.34909
H     2.64757   1.69225  -1.63268
H     3.74752   2.15900  -0.32416
N     1.15572   3.32308   0.78336
H    -0.07884   1.79577   1.59471
H     0.75292   2.87790   2.76221
O     1.97904   4.12170  -1.13275
H     0.60349   4.16955   0.81458
O    -0.12433   1.02288  -1.28870
