17

Hg    0.00000   0.00000   0.00000
S    -0.34303  -1.56389   2.12893
N    -3.79838  -1.92812   1.56149
N    -2.95265  -1.13742   1.70344
N    -2.15289  -1.06595   3.99283
C    -1.84604  -1.20610   2.80285
H    -2.80007  -0.23390   1.08086
H    -3.10980  -0.94988   4.29409
Cl   -2.16372   1.18557   0.11628
S     0.35409  -1.55919  -2.12900
C     1.86459  -1.20719  -2.78923
N     2.96096  -1.13479  -1.67997
N     2.18291  -1.07243  -3.97684
N     3.80520  -1.92507  -1.52767
H     2.80367  -0.22900  -1.06257
H     3.14311  -0.95903  -4.26884
O     1.44243   0.79798  -0.07168
