68

Pt    0.00000   0.00000   0.00000
Cl   -1.24890  -1.76384   0.64720
N    -0.43757  -0.68958  -1.92615
H    -1.42551  -0.65819  -2.15500
N     1.09412   1.60175  -0.58953
H     1.09812   2.37466   0.06980
N    -0.36722  -2.68685  -3.14058
N     1.57936  -1.77956  -2.23711
N     3.09068  -0.79917  -0.81779
H     3.58755   0.03598  -0.53614
N     2.41467   2.83033  -2.09716
N     1.98986   0.55026  -2.43250
C     0.20079  -1.69366  -2.42769
C    -1.77443  -3.00604  -3.01965
H    -2.18947  -2.51585  -2.13767
H    -1.84895  -4.08809  -2.85815
C    -2.51573  -2.63865  -4.30295
H    -2.43867  -1.56324  -4.47947
H    -3.57057  -2.89623  -4.20747
C    -1.88173  -3.39606  -5.46795
H    -2.03068  -4.46843  -5.32412
H    -2.35861  -3.11362  -6.40777
C    -0.38643  -3.09367  -5.53303
H    -0.24001  -2.03462  -5.75682
H     0.08432  -3.67785  -6.32466
C     0.29545  -3.41395  -4.19811
H     0.23222  -4.48860  -3.99067
H     1.34565  -3.12989  -4.24138
C     2.10081  -3.04442  -1.81733
C     1.38485  -3.84028  -0.93489
H     0.45051  -3.48550  -0.52378
C     1.89884  -5.06788  -0.55670
H     1.34633  -5.68281   0.13712
C     3.12017  -5.49713  -1.04782
H     3.51951  -6.45387  -0.74620
C     3.83854  -4.69018  -1.91400
H     4.79814  -5.01482  -2.28796
C     3.33104  -3.46390  -2.30263
H     3.89358  -2.82674  -2.96887
C     2.24053  -0.65989  -1.73642
C     1.80700   1.70420  -1.65538
C     3.50852   2.83696  -3.04585
H     3.76046   1.81521  -3.32660
H     4.38127   3.28292  -2.54966
C     3.15815   3.66863  -4.27860
H     4.01381   3.68844  -4.95413
H     2.32057   3.20492  -4.80273
C     2.78134   5.08339  -3.84824
H     2.47596   5.67173  -4.71431
H     3.64912   5.57151  -3.39882
C     1.64739   5.02266  -2.82967
H     1.39829   6.02301  -2.47479
H     0.75931   4.59684  -3.30053
C     2.04642   4.15231  -1.63537
H     2.89907   4.60519  -1.11461
H     1.21096   4.08391  -0.93886
C     1.54807   0.54022  -3.76676
C     2.19386  -0.26600  -4.70032
H     3.02262  -0.88312  -4.38707
C     1.77681  -0.26776  -6.01799
H     2.28215  -0.89573  -6.73645
C     0.72271   0.53709  -6.41980
H     0.40192   0.53537  -7.45028
C     0.08042   1.34089  -5.49219
H    -0.74634   1.96471  -5.79823
C     0.48586   1.34409  -4.17042
H    -0.02690   1.95131  -3.43963
O     0.25055   0.55367   1.53400
