35

Pt    0.00000   0.00000   0.00000
C    -0.10350   3.58908  -3.07535
C     0.34403   4.56223  -5.39317
H    -0.15783   3.72413  -5.87195
H     1.41178   4.35502  -5.35729
H     0.17568   5.46561  -5.97349
C    -0.68060   3.70074  -1.80870
H    -1.16484   4.62420  -1.53137
N    -0.03104   1.48251  -1.25401
C     0.51734   2.38132  -3.39304
H     0.98908   2.22188  -4.34854
C    -0.62421   2.63618  -0.93425
H    -1.05616   2.70138   0.05788
C    -0.18757   4.76057  -4.00008
C     0.52931   1.36314  -2.46030
H     0.99363   0.40904  -2.68371
O    -0.66653   5.80479  -3.62737
Cl   -1.30247  -1.24135  -1.44631
C     0.10503  -3.58889   3.07554
C    -0.34245  -4.56198   5.39337
H     0.15940  -3.72385   5.87210
H    -1.41021  -4.35479   5.35751
H    -0.17408  -5.46533   5.97374
C     0.68211  -3.70050   1.80887
H     1.16632  -4.62395   1.53148
N     0.03280  -1.48216   1.25443
C    -0.51582  -2.38114   3.39329
H    -0.98757  -2.22175   4.34880
C     0.62579  -2.63585   0.93452
H     1.05763  -2.70103  -0.05765
C     0.18910  -4.76038   4.00027
C    -0.52771  -1.36289   2.46065
H    -0.99214  -0.40883   2.68404
O     0.66805  -5.80461   3.62757
O     0.93151   0.88730   1.03319
