23

Hg    0.00000   0.00000   0.00000
S    -1.98013   1.41037  -0.45747
S    -1.35632  -2.21982   1.32488
N    -2.41371   3.11046   1.49359
N    -0.54854   1.66328   1.71254
N    -1.23380  -2.03543  -1.29636
N    -2.55619  -3.76743  -0.41724
C    -0.25776   2.21740   2.87988
H     0.61143   1.82312   3.39186
C    -1.02229   3.24207   3.41274
H    -0.78168   3.69093   4.36100
C    -2.11319   3.65255   2.65343
H    -2.77394   4.44467   2.98191
C    -1.63026   2.13598   1.04976
C    -1.72682  -2.68389  -0.21753
C    -1.55756  -2.42465  -2.49439
H    -1.12483  -1.86404  -3.31248
C    -2.41927  -3.51808  -2.73948
H    -2.67402  -3.81380  -3.74119
C    -2.90367  -4.17922  -1.64719
H    -3.56236  -5.03293  -1.71580
H    -2.89408  -4.23273   0.41796
O     1.53769  -0.46250  -0.37961
