47

Cl    1.24224   0.58891  -1.87803
Cu    0.00000   0.00000   0.00000
C     1.99332   1.20095   2.09763
C     0.24344   0.36233   3.04734
C     1.09026   0.72777   4.05047
C     3.29311   1.75906   4.07980
C     2.95874   1.68085   1.08449
C     0.76337  -2.63450  -0.89947
C     1.83918  -2.16482   0.91529
C     2.22630  -3.41067   0.53507
C     1.63894  -4.92041  -1.36316
C    -0.14054  -2.52749  -2.06211
C    -1.87638   1.81716  -1.26375
C    -1.07636   2.72990   0.52475
C    -1.94878   3.61878  -0.01866
C    -3.41224   3.61954  -2.04038
C    -2.13853   0.84833  -2.34725
H    -0.72374  -0.09461   3.09755
H     0.99931   0.65856   5.11424
H     4.11213   2.13546   3.50458
H     3.30075   1.78983   5.14982
H     2.55645   1.48939   0.09276
H     3.91357   1.16280   1.18155
H     3.13689   2.75163   1.19285
H     2.14509  -1.58576   1.76071
H     2.91617  -4.10011   0.97568
H     2.35558  -5.57796  -0.87504
H     0.67068  -5.42265  -1.40496
H     1.98005  -4.71969  -2.38035
H    -0.11708  -3.42289  -2.67468
H    -1.15365  -2.35089  -1.69931
H     0.15632  -1.66340  -2.65684
H    -0.48144   2.80599   1.41020
H    -2.24823   4.59652   0.29710
H    -4.31507   3.00758  -2.08562
H    -2.99641   3.71538  -3.04511
H    -3.67618   4.60927  -1.67278
H    -2.86461   1.22713  -3.05932
H    -1.19956   0.62993  -2.85612
H    -2.50154  -0.07914  -1.90335
N     2.21203   1.25887   3.45156
N     0.80917   0.66822   1.84688
N     1.54087  -3.69867  -0.61362
N     0.93324  -1.69968   0.01628
N    -2.44945   3.03294  -1.14986
N    -1.04481   1.62151  -0.25899
O    -1.40781  -0.80866   0.29437
