38

Cd    0.00000   0.00000   0.00000
Br   -0.86364  -0.30485   2.33649
S    -1.96631  -3.57420  -1.09819
S    -0.04306  -2.99484  -0.83660
N    -1.38411   1.69224  -0.76825
N    -2.50277   3.52373  -1.14977
N    -1.36880  -0.69059  -2.38969
C    -1.85548   2.78821  -0.21864
C    -2.43852   2.85817  -2.35212
C    -1.73013   1.71613  -2.09375
C    -1.28499   0.62958  -3.01850
C    -3.04753   3.40877  -3.58878
C    -1.68213   3.19818   1.19913
C    -0.22286   3.56479   1.48929
C    -2.75195  -1.04218  -2.06178
C    -2.86200  -1.98948  -0.87276
C    -0.72426  -1.71749  -3.21766
C     0.43283  -2.41361  -2.51230
H    -2.94856   4.41501  -1.00119
H    -0.23300   0.80656  -3.26947
H    -1.87848   0.67266  -3.94661
H    -3.06303   2.65265  -4.36828
H    -2.47426   4.26235  -3.95186
H    -4.06848   3.73853  -3.39853
H    -1.97156   2.36947   1.85026
H    -2.33100   4.05083   1.40932
H    -0.11547   3.84744   2.53269
H     0.10271   4.39365   0.86376
H     0.42791   2.70956   1.29645
H    -3.28213  -0.12350  -1.79160
H    -3.26249  -1.48536  -2.93214
H    -2.47809  -1.52975   0.03993
H    -3.90177  -2.27386  -0.71866
H    -0.33223  -1.27468  -4.13924
H    -1.45963  -2.47796  -3.50747
H     0.76355  -3.27544  -3.09132
H     1.27345  -1.73929  -2.34913
O     1.40388   0.46345  -0.73269
