34

C    -1.98229  -0.66554   2.40503
H    -1.50499   0.29786   2.21035
H    -2.27807  -0.71178   3.44909
H    -2.87621  -0.72667   1.78336
C    -1.06362  -1.79166   2.05901
C    -1.09130  -2.99594   2.74595
H    -1.77517  -3.12205   3.56961
C    -0.23631  -4.02857   2.36726
H    -0.25080  -4.96638   2.90094
C     0.61920  -3.83810   1.30763
H     1.29452  -4.60905   0.97391
C     0.60485  -2.60136   0.64797
C     1.39285  -2.24880  -0.47121
H     2.08777  -2.95026  -0.90634
C     1.84147  -0.55367  -2.07057
C     2.74267  -1.29071  -2.84631
H     2.98003  -2.30896  -2.58436
C     3.34166  -0.73003  -3.95608
H     4.03618  -1.31889  -4.53561
C     3.05503   0.57243  -4.33406
H     3.51931   1.00257  -5.20748
C     2.15630   1.31502  -3.59083
H     1.90442   2.32236  -3.88448
C     1.56672   0.76219  -2.46829
C     1.46924   3.08434  -1.01205
H     2.36530   2.70014  -0.53667
H     0.90141   3.67652  -0.30160
H     1.71357   3.68249  -1.88372
Br    1.33762   0.91678   1.59396
N    -0.22480  -1.60368   1.04193
N     1.19466  -1.02938  -0.93485
S     0.38966   1.70968  -1.52593
Fe    0.00000   0.00000   0.00000
O    -1.40571  -0.28119  -0.81695
