42

Pd    0.00000   0.00000   0.00000
I    -0.88345  -1.77528  -1.69317
N     3.86291  -0.95685  -1.25322
N     2.40501   0.63339  -1.65033
N    -1.82966   0.17320   0.79113
C     1.79529  -0.21325  -0.76691
C     2.70898  -1.22002  -0.53265
C     3.67007   0.18603  -1.94044
C     4.48195   0.90389  -2.81851
H     5.47488   0.55332  -3.04780
C     3.97394   2.04966  -3.37835
H     4.57405   2.62734  -4.06235
C     2.66446   2.47590  -3.07585
H     2.27193   3.37093  -3.52828
C     1.89606   1.75539  -2.21520
H     0.87437   2.00844  -1.93419
C     5.10190  -1.68462  -1.20830
H     5.12528  -2.29428  -0.30660
H     5.93750  -0.98390  -1.18351
H     5.20875  -2.33086  -2.08338
C     2.41547  -2.40395   0.26022
C     2.82777  -3.68119  -0.11694
H     3.42663  -3.81848  -1.00439
C     2.42102  -4.78781   0.60515
H     2.73906  -5.77206   0.29513
C     1.59544  -4.64184   1.70619
H     1.27403  -5.50965   2.26202
C     1.17353  -3.37786   2.08725
H     0.53271  -3.26249   2.94992
C     1.57277  -2.26458   1.37182
H     1.27523  -1.26508   1.71173
C    -2.65093   1.14159   0.39914
H    -2.26232   1.83811  -0.34438
C    -3.93278   1.26945   0.90278
H    -4.57130   2.06733   0.55811
C    -4.37005   0.35820   1.85172
H    -5.36341   0.43103   2.26770
C    -3.50789  -0.65072   2.25406
H    -3.80849  -1.38313   2.98645
C    -2.24480  -0.70942   1.69381
H    -1.53836  -1.49435   1.96577
O     0.53946   1.26479   0.91203
