45

Pd    0.00000   0.00000   0.00000
I    -0.97891   0.54860  -2.37284
N     2.38936  -0.83487  -1.57961
N     3.89111   0.73727  -1.30843
N    -1.84321  -0.04594   0.78132
C     1.81805   0.07687  -0.73749
C     2.77187   1.05184  -0.55468
C     5.01721   1.61497  -1.49038
H     5.88169   1.27714  -0.91459
H     4.73562   2.61050  -1.15005
H     5.28645   1.67171  -2.54339
C     3.65498  -0.43619  -1.94134
C     5.81215  -0.89691  -3.22806
H     6.26962  -1.75452  -3.71414
H     6.42905  -0.61448  -2.37895
H     5.80357  -0.07498  -3.94285
C     4.41947  -1.24747  -2.79969
C     3.83254  -2.41435  -3.23770
H     4.38784  -3.06446  -3.89521
C     2.53678  -2.79591  -2.84286
H     2.11480  -3.72073  -3.19777
C     1.83086  -1.99501  -2.00417
H     0.83151  -2.20832  -1.62522
C     2.62140   2.14928   0.39013
C     3.65211   2.55990   1.23432
H     4.62468   2.09561   1.16980
C     3.42127   3.51876   2.20333
H     4.22663   3.81951   2.85685
C     2.16351   4.07655   2.35194
H     1.98639   4.81891   3.11541
C     1.12857   3.67024   1.52461
H     0.14656   4.10770   1.63758
C     1.34773   2.71132   0.55325
H     0.53513   2.43365  -0.12840
C    -2.25704   0.95786   1.54791
H    -1.54979   1.77314   1.70331
C    -3.51053   0.96986   2.13198
H    -3.81243   1.80369   2.74582
C    -4.35770  -0.10658   1.91596
H    -5.34153  -0.12971   2.35938
C    -3.91538  -1.15379   1.12252
H    -4.53931  -2.01231   0.93104
C    -2.64893  -1.08152   0.57120
H    -2.26194  -1.87855  -0.06406
O     0.63203  -0.54100   1.42490
