23

Hg    0.00000   0.00000   0.00000
I    -0.48102   0.16432   2.56052
N     2.52057  -0.15417  -0.15300
N     0.87372  -2.36867   0.03306
C     3.25071   0.90145  -0.48182
H     2.80089   1.86799  -0.29298
C     4.51766   0.80694  -1.03282
H     5.06971   1.69840  -1.28222
C     5.03768  -0.45529  -1.26746
H     6.01023  -0.57704  -1.72011
C     4.28677  -1.56213  -0.91328
H     4.65659  -2.55691  -1.10376
C     3.02922  -1.37532  -0.34228
C     2.20033  -2.52405   0.07034
C     2.78399  -3.71578   0.49653
H     3.85656  -3.80356   0.56405
C     1.96954  -4.77099   0.86725
H     2.40067  -5.70001   1.20878
C     0.59552  -4.61071   0.79554
H    -0.07889  -5.40657   1.06655
C     0.09956  -3.38657   0.37955
H    -0.96773  -3.21470   0.31934
O    -0.23780   0.30494  -1.60405
