39

Ti    0.00000   0.00000   0.00000
Cl   -1.55456  -1.59266   0.31415
C    -0.61352   0.28447   2.39486
C    -0.62194   1.51780   1.68660
H    -1.43294   2.23221   1.68369
C     0.70412   1.79951   1.26512
H     1.05207   2.74903   0.88064
C     1.51008   0.69960   1.59907
H     2.58476   0.62963   1.48050
C     0.69409  -0.25452   2.25894
H     1.05804  -1.17259   2.70003
N    -1.63621  -0.21853   3.15237
C    -1.49453  -1.55865   3.68183
H    -2.32464  -1.75902   4.35656
H    -0.56767  -1.62355   4.25140
H    -1.48647  -2.31711   2.89200
C    -2.98177   0.20063   2.82452
H    -3.67685  -0.25485   3.52629
H    -3.06342   1.28369   2.91922
H    -3.26068  -0.09540   1.80473
C     0.61341   0.28447  -2.39489
C     0.62188   1.51780  -1.68663
C    -0.70416   1.79953  -1.26509
C    -1.51016   0.69962  -1.59899
C    -0.69421  -0.25450  -2.25891
N     1.63604  -0.21853  -3.15246
H     1.43290   2.23219  -1.68374
H    -1.05209   2.74906  -0.88062
H    -2.58484   0.62969  -1.48040
H    -1.05819  -1.17255  -2.70001
C     1.49434  -1.55866  -3.68189
C     2.98162   0.20066  -2.82472
H     2.32441  -1.75903  -4.35667
H     0.56745  -1.62358  -4.25139
H     1.48634  -2.31711  -2.89204
H     3.67666  -0.25484  -3.52652
H     3.06325   1.28373  -2.91950
H     3.26061  -0.09530  -1.80494
O     1.14114  -1.16919  -0.23084
