58

Ni    0.00000   0.00000   0.00000
P    -0.54352  -0.79062   1.89001
P     0.93222   0.82394  -1.73853
O     0.44678  -2.06053   2.11360
O     1.62700  -0.21584  -2.75961
C     0.90663  -1.70770  -0.23040
C     1.04871  -2.47848   0.93567
C     1.73582  -3.67873   0.96480
H     1.81059  -4.21878   1.89614
C     2.29584  -4.16388  -0.20288
H     2.84272  -5.09420  -0.19467
C     2.13072  -3.46094  -1.37918
H     2.53956  -3.85082  -2.30048
C     1.43757  -2.25361  -1.40170
C     1.24034  -1.58387  -2.74066
H     1.85944  -2.06887  -3.50094
H     0.18822  -1.68277  -3.04122
C     2.44705   1.82318  -1.36095
H     2.98320   1.92838  -2.31141
C     3.29234   0.99524  -0.39609
H     4.20871   1.52055  -0.13175
H     3.55706   0.03731  -0.84216
H     2.73215   0.80002   0.52217
C     2.12203   3.19095  -0.77786
H     1.53892   3.09396   0.13566
H     1.55135   3.79759  -1.47672
H     3.04294   3.72065  -0.53771
C    -0.09111   1.87262  -2.88921
H    -0.43354   2.73613  -2.31183
C    -1.31005   1.04661  -3.29454
H    -2.02827   1.65950  -3.83562
H    -1.80864   0.64611  -2.40879
H    -1.01569   0.21655  -3.93643
C     0.70109   2.33110  -4.10497
H     1.15687   1.47916  -4.60640
H     1.48605   3.03024  -3.82754
H     0.03687   2.82909  -4.80958
C    -0.24252   0.16322   3.44655
H    -0.98774   0.96512   3.47313
C     1.14621   0.78739   3.33629
H     1.36072   1.40813   4.20400
H     1.20651   1.41744   2.44699
H     1.90849   0.01114   3.26883
C    -0.36391  -0.72170   4.68001
H     0.30493  -1.57624   4.59865
H    -1.38016  -1.08554   4.81157
H    -0.08886  -0.15437   5.56783
C    -2.21849  -1.57074   2.07821
H    -2.13774  -2.30655   2.88798
C    -2.50669  -2.29208   0.76323
H    -3.48683  -2.76574   0.78394
H    -1.75724  -3.05972   0.56700
H    -2.49121  -1.57607  -0.06382
C    -3.29794  -0.54316   2.39059
H    -3.31069   0.24217   1.63749
H    -3.13757  -0.08042   3.36138
H    -4.27511  -1.02396   2.40032
O    -0.84040   1.38815   0.29878
