23

Pt    0.00000   0.00000   0.00000
Br   -1.94842   1.46301  -0.30296
N    -1.20361  -1.21059   1.21190
H    -0.59832  -1.72145   1.86220
H    -1.87411  -0.63086   1.72527
C     1.33368   1.53418  -0.69173
H     0.86413   2.50368  -0.54896
H     2.30045   1.40864  -0.21186
C     0.97577   0.73492  -1.76290
H     1.65958  -0.02682  -2.13147
H     0.22126   1.07183  -2.47059
C    -1.88457  -2.10771   0.32064
C    -1.23213  -3.24374  -0.15112
H    -0.22343  -3.46331   0.16658
C    -1.88076  -4.09072  -1.03133
H    -1.36842  -4.96663  -1.39824
C    -3.17668  -3.81904  -1.43716
H    -3.67753  -4.48147  -2.12610
C    -3.83009  -2.69773  -0.95401
H    -4.84212  -2.48352  -1.26066
C    -3.19301  -1.84407  -0.07193
H    -3.70496  -0.96792   0.29781
O     1.26596  -0.97355   0.41479
