38

Tc    0.00000   0.00000   0.00000
Br    1.03313  -1.64223  -1.66031
O    -1.55921  -0.61313  -0.43654
O     1.44543   0.61124   0.42757
O     0.05901  -5.37426   4.47950
O     1.10916  -3.92524   5.67702
O    -1.01801   4.11177  -5.57056
O     0.07998   5.48849  -4.33124
N     0.16694  -1.46357   1.57125
N    -0.15514   1.48053  -1.55858
N     0.53915  -4.28280   4.67461
N    -0.42999   4.41846  -4.56055
C     0.72371  -1.11739   2.73409
C     0.86934  -2.00801   3.78042
C     0.41500  -3.30781   3.60102
C    -0.15582  -3.67695   2.39036
C    -0.25651  -2.71686   1.40235
C     0.32051   2.70956  -1.34577
C     0.25583   3.70558  -2.30117
C    -0.32993   3.40247  -3.52314
C    -0.81807   2.12342  -3.75454
C    -0.70534   1.19340  -2.73939
C    -2.84525  -0.96510  -0.73301
C    -2.92808  -2.30017  -1.47814
H     1.06018  -0.09317   2.82521
H     1.31781  -1.70833   4.71461
H    -0.49985  -4.68720   2.23257
H    -0.66998  -2.96914   0.43559
H     0.76441   2.89610  -0.37691
H     0.64233   4.69419  -2.10905
H    -1.26292   1.87036  -4.70422
H    -1.04920   0.17932  -2.89035
H    -3.42196  -1.01422   0.20495
H    -3.28779  -0.16699  -1.35225
H    -2.24313  -2.30502  -2.32451
H    -3.94095  -2.45001  -1.83922
H    -2.66787  -3.12727  -0.82109
O    -0.78330   1.01651   1.03713
