58

Ru    0.00000   0.00000   0.00000
H     1.04981  -0.88167   0.68172
P    -1.70941  -1.11360   1.00114
P     1.49167   0.70010  -1.56477
O     0.38502   2.18015   2.01806
O    -2.03796  -2.28379  -0.13056
O     1.26301  -0.43288  -2.75756
N    -0.35041  -1.40463  -1.43016
C     0.24632   1.33393   1.24869
C    -1.35843  -2.27290  -1.28820
C    -1.72200  -3.15904  -2.29423
H    -2.53968  -3.83829  -2.12343
C    -1.02762  -3.12205  -3.49076
H    -1.28838  -3.79450  -4.29203
C    -0.00877  -2.20017  -3.65642
H     0.54477  -2.11246  -4.57569
C     0.29277  -1.34770  -2.60203
C    -3.42013  -0.39489   1.12568
H    -3.64338  -0.12714   0.08321
C    -4.46590  -1.38752   1.61843
H    -4.38522  -1.54067   2.69289
H    -4.35887  -2.34589   1.11245
H    -5.46199  -1.00027   1.41038
C    -3.39871   0.88851   1.94636
H    -4.34997   1.40883   1.85048
H    -2.60981   1.54827   1.58498
H    -3.22594   0.68392   3.00109
C    -1.47624  -2.20787   2.48293
H    -2.43546  -2.65811   2.75591
C    -0.95257  -1.33463   3.61701
H    -0.70815  -1.94225   4.48661
H    -1.68728  -0.59010   3.91490
H    -0.05230  -0.81351   3.28737
C    -0.47937  -3.31004   2.14300
H     0.43673  -2.87079   1.74706
H    -0.88940  -3.99362   1.40168
H    -0.23098  -3.88029   3.03622
C     1.19871   2.21859  -2.59834
H     0.19739   2.03472  -3.01311
C     2.18943   2.37857  -3.74492
H     1.80792   3.10891  -4.45661
H     2.33301   1.43402  -4.26756
H     3.15195   2.73594  -3.38401
C     1.12086   3.45748  -1.71507
H     2.09817   3.72590  -1.31884
H     0.44265   3.27805  -0.88072
H     0.74128   4.30131  -2.28836
C     3.32947   0.53486  -1.36190
H     3.82879   0.91518  -2.25823
C     3.68683  -0.93443  -1.16888
H     4.74108  -1.03433  -0.91723
H     3.49358  -1.50651  -2.07454
H     3.09545  -1.35482  -0.35500
C     3.72694   1.35394  -0.13954
H     3.15161   1.01786   0.72453
H     3.52689   2.41231  -0.29036
H     4.78722   1.23210   0.07517
O    -1.15113   0.82020  -0.85127
