47

Au    0.00000   0.00000   0.00000
N     2.80278  -0.81105   0.67526
N     2.94524   4.88192   5.83280
N     2.03264  -2.21445  -0.75391
N     4.37226   4.38201   4.20921
N     1.60510  -4.21452  -1.78861
O     2.49252   3.78759   5.16754
C     4.05939   5.21421   5.24265
C     3.38583   3.53051   4.20124
C     4.92361   6.36370   5.63787
C     5.10992   7.26272   4.41052
H     5.53704   6.69213   3.58979
H     5.77548   8.08762   4.65305
H     4.15383   7.67051   4.08944
C     6.28054   5.80070   6.07844
H     6.16196   5.16092   6.95058
H     6.95366   6.61536   6.33449
H     6.72262   5.21651   5.27514
C     4.27192   7.14105   6.77943
H     3.30285   7.52455   6.47226
H     4.90637   7.97545   7.06898
H     4.12066   6.49569   7.64033
C     3.21542   2.41257   3.29968
C     2.11016   1.57043   3.40845
H     1.36872   1.75638   4.16947
C     1.97201   0.50106   2.54639
H     1.13088  -0.16784   2.63990
C     2.93108   0.27535   1.56440
C     4.03869   1.11136   1.45744
H     4.77387   0.93170   0.68708
C     4.18080   2.17641   2.32172
H     5.02713   2.84069   2.25403
C     1.70022  -1.11402  -0.03929
C     3.81541  -1.70334   0.40981
H     4.77086  -1.63906   0.88709
C     3.32622  -2.59552  -0.47518
H     3.76028  -3.45743  -0.93483
C     1.22150  -2.95407  -1.63360
C     0.13193  -2.40572  -2.30065
H    -0.13103  -1.36794  -2.17467
C    -0.60153  -3.23624  -3.13111
H    -1.45906  -2.84668  -3.65820
C    -0.21672  -4.56009  -3.27953
H    -0.76607  -5.23361  -3.91675
C     0.90510  -4.99422  -2.59050
H     1.26617  -6.01022  -2.67576
O    -1.36880   0.92102   0.02454
