65

Au    0.00000   0.00000   0.00000
O     1.77444   6.38408  -2.63546
N     2.23369   7.41026  -3.39853
C     1.53793   7.36566  -4.50030
N     0.63064   6.34830  -4.50501
C     0.81253   5.77879  -3.34686
C     1.67852   8.31965  -5.63809
C     1.99357   7.51297  -6.90260
H     2.94618   6.99829  -6.79800
H     2.05060   8.17782  -7.76104
H     1.21635   6.77358  -7.07848
C     0.33703   9.04369  -5.80719
H    -0.45973   8.32261  -5.97223
H     0.38522   9.71841  -6.65834
H     0.10309   9.62388  -4.91701
C     2.79366   9.32184  -5.34806
H     2.57803   9.87668  -4.43922
H     2.88809  10.02084  -6.17563
H     3.74043   8.80700  -5.21091
C     0.07510   4.65448  -2.81425
C    -0.89563   4.04601  -3.60890
H    -1.04646   4.40539  -4.61398
C    -1.64489   3.00548  -3.10306
H    -2.38853   2.52285  -3.71946
C    -1.43421   2.56672  -1.79813
C    -0.45795   3.16284  -1.00699
H    -0.30357   2.82116   0.00405
C     0.29940   4.19891  -1.51631
H     1.05597   4.66920  -0.90826
N    -2.25752   1.54490  -1.28362
C    -1.85990   0.47868  -0.55694
C    -3.61928   1.51978  -1.46916
H    -4.13848   2.28487  -2.00739
O    -2.77785  -5.99405   2.54717
N    -3.22419  -6.94845   3.40528
C    -4.21658  -6.40207   4.05085
N    -4.45258  -5.11849   3.65759
C    -3.54979  -4.91494   2.73985
C    -5.02463  -7.07727   5.10709
C    -4.83170  -6.29966   6.41455
H    -3.79028  -6.33369   6.72696
H    -5.44411  -6.73739   7.19910
H    -5.12067  -5.26037   6.27899
C    -6.49744  -7.02227   4.68530
H    -6.80400  -5.99092   4.53026
H    -7.12086  -7.46472   5.45837
H    -6.64907  -7.57324   3.75949
C    -4.56761  -8.52488   5.27312
H    -4.68862  -9.07063   4.34139
H    -5.15570  -9.01254   6.04692
H    -3.51793  -8.56154   5.55038
C    -3.36494  -3.70588   1.96804
C    -4.20859  -2.62136   2.20509
H    -4.96117  -2.70480   2.97236
C    -4.06941  -1.46783   1.46375
H    -4.71037  -0.61959   1.65255
C    -3.08683  -1.38826   0.48024
C    -2.24127  -2.46628   0.24280
H    -1.48894  -2.39989  -0.52687
C    -2.37715  -3.62071   0.98853
H    -1.72640  -4.46240   0.81141
N    -2.98983  -0.20743  -0.28399
C    -4.08161   0.42574  -0.82710
H    -5.07382   0.03601  -0.73533
O     1.53262  -0.39869   0.46328
