58

Pt    0.00000   0.00000   0.00000
As    0.76822  -1.92937   1.15495
C    -0.00961  -3.48309   2.02755
C    -0.81282  -3.28965   3.14699
H    -0.99060  -2.27741   3.49712
C    -1.37841  -4.37951   3.78570
H    -1.99821  -4.23193   4.65785
C    -1.15278  -5.65969   3.30516
H    -1.59381  -6.50904   3.80546
C    -0.37139  -5.85320   2.17785
H    -0.20655  -6.85177   1.79940
C     0.19403  -4.76616   1.53396
H     0.79853  -4.90616   0.64285
C     1.94861  -1.18548   2.56239
H     1.48947  -0.66103   3.40267
C     2.79693  -2.37032   2.94661
C     3.16919  -2.56757   4.37670
H     2.26564  -2.64916   4.98128
H     3.73485  -1.70913   4.74013
H     3.76630  -3.46368   4.51948
C     4.06819  -4.26307   1.78798
H     4.36924  -4.60705   2.77318
H     4.96436  -4.00545   1.22050
H     3.57339  -5.08464   1.26979
C     3.15719  -3.08400   1.87405
C     2.60536  -2.47875   0.60891
H     2.75209  -3.08657  -0.28875
C     3.25593  -1.08581   0.47120
H     4.34800  -1.19500   0.45588
C     2.80370  -0.25081   1.68354
H     3.65895   0.13957   2.24103
H     2.18854   0.60636   1.35899
C     3.89846  -1.19785  -2.34158
C     5.26583  -0.95484  -2.32974
H     5.67923  -0.23818  -1.63385
C     6.08792  -1.62077  -3.21984
H     7.15143  -1.43243  -3.21577
C     5.54743  -2.52647  -4.11999
H     6.19330  -3.04467  -4.81310
C     4.18264  -2.76293  -4.13727
H     3.76296  -3.46408  -4.84321
C     3.35656  -2.09721  -3.24914
H     2.28777  -2.25785  -3.25143
C     3.19744   1.39645  -1.18413
C     4.21454   1.94567  -0.41312
H     4.79001   1.32293   0.25702
C     4.47700   3.30057  -0.49688
H     5.26150   3.73373   0.10634
C     3.72951   4.10270  -1.34530
H     3.93312   5.16187  -1.39728
C     2.72279   3.55217  -2.12089
H     2.13580   4.17769  -2.77514
C     2.45862   2.19671  -2.04703
H     1.66634   1.75357  -2.63216
Cl   -1.30277   0.24953   1.80058
O     1.38172  -0.63172  -1.61030
P     2.78407  -0.36613  -1.17672
O    -0.38829   1.46998  -0.64100
