41

Pt    0.00000   0.00000   0.00000
Cl   -0.08036  -1.48743   1.65518
N    -0.78537   2.74343  -3.05138
N     0.04322   1.39477  -1.47625
N     1.99260   2.70205  -0.96303
N     0.34796   3.26074  -2.58164
N     2.11882   2.25557   2.80961
N     0.70333   1.36486   1.32958
N    -0.32623   3.42042   0.63150
N     1.39612   3.22575   2.25400
C    -0.93516   1.63088  -2.37156
C     0.87353   2.42562  -1.60592
C     2.59959   3.83281  -1.25299
C     2.09531   4.72721  -2.22574
C     0.94674   4.42888  -2.91040
C     3.84891   4.14505  -0.50069
C     0.30176   5.25648  -3.95956
C     1.67821   1.16011   2.23656
C     0.50863   2.68049   1.33680
C    -0.27698   4.72463   0.79885
C     0.62124   5.33101   1.70766
C     1.47081   4.56148   2.45806
C    -1.20933   5.55002  -0.02180
C     2.45507   5.04665   3.45694
H    -1.75776   0.95940  -2.52206
H     2.62271   5.64427  -2.43193
H     4.03713   3.36560   0.23173
H     3.76102   5.10905  -0.00111
H     4.69337   4.19852  -1.18609
H     0.31472   4.71789  -4.90668
H     0.81250   6.20717  -4.07650
H    -0.74423   5.42080  -3.70482
H     2.18356   4.67454   4.44447
H     2.49081   6.13142   3.47576
H     3.43986   4.64234   3.22750
H     2.05055   0.18337   2.47624
H     0.63020   6.40345   1.81429
H    -0.65614   6.29301  -0.59489
H    -1.90752   6.07787   0.62595
H    -1.76954   4.90676  -0.69413
O    -0.54093  -1.09710  -1.10737
