29

Pt    0.00000   0.00000   0.00000
O    -0.67553  -1.65737   0.98509
N     0.62987   1.81963  -0.51536
N    -0.11048   0.79701   1.73702
C     0.24319   2.05682   1.80579
H     0.23032   2.63032   2.72344
C     0.65748   2.64788   0.57112
C     1.07071   3.97818   0.43464
H     1.08563   4.61565   1.30439
C     1.45029   4.44962  -0.80524
H     1.77098   5.47300  -0.92567
C     1.41358   3.58772  -1.89634
H     1.70260   3.92082  -2.87907
C     0.99676   2.28117  -1.70450
H     0.95062   1.57126  -2.52062
C    -0.54801  -0.04314   2.71985
C    -0.83446  -1.36015   2.23333
C    -1.29439  -2.31053   3.17144
H    -1.51479  -3.30651   2.82105
C    -1.45192  -1.96354   4.48637
H    -1.80471  -2.70305   5.19118
C    -1.17040  -0.66841   4.96193
C    -0.72130   0.27941   4.07487
H    -0.49912   1.27970   4.41762
C    -1.36098  -0.35828   6.41557
H    -1.16623   0.69140   6.62012
H    -0.68524  -0.96077   7.02223
H    -2.37957  -0.59076   6.72348
O     0.09378  -0.69177  -1.49505
