41

Zr    0.00000   0.00000   0.00000
Cl    0.14649   0.86227   2.25612
S     0.13639  -4.58780   1.63008
S     1.63530   4.58731  -0.04050
N     0.09489  -2.00406   1.36244
N     1.36318   2.00397  -0.07928
C     0.05403  -3.10683   0.72327
C     0.21955  -2.14507   2.78551
C     0.20689  -3.63506   3.18697
C     0.72427   3.10669  -0.03237
C     2.79124   2.14475  -0.11785
C     3.18850   3.63486  -0.17126
H     1.15222  -1.65159   3.08417
H    -0.60504  -1.59395   3.25109
H     1.10636  -3.92972   3.72350
H    -0.66881  -3.89790   3.77788
H     3.19357   1.64859   0.77370
H     3.16036   1.59630  -0.99145
H     3.83382   3.92391   0.65555
H     3.66490   3.90351  -1.11261
Cl   -0.14724   0.86195  -2.25613
Cl    2.25543  -0.86152  -0.15132
N    -0.09524  -2.00408  -1.36229
N    -1.36356   2.00393   0.07961
C    -0.05434  -3.10684  -0.72309
C    -0.72469   3.10667   0.03260
C    -0.21983  -2.14508  -2.78535
C    -2.79164   2.14470   0.11777
S    -0.13668  -4.58785  -1.62986
S    -1.63578   4.58725   0.04047
C    -0.20739  -3.63509  -3.18673
H    -1.15237  -1.65143  -3.08409
H     0.60491  -1.59411  -3.25085
C    -3.18893   3.63478   0.17165
H    -3.19367   1.64888  -0.77411
H    -3.16108   1.59593   0.99101
H    -1.10702  -3.92965  -3.72304
H     0.66814  -3.89802  -3.77785
H    -3.83462   3.92398  -0.65480
H    -3.66493   3.90320   1.11328
O    -1.53825  -0.58789   0.10334
