65

Ni    0.00000   0.00000   0.00000
C    -0.22930   1.81516   0.49711
C    -1.12547   3.82716   0.82871
H    -1.89070   4.57356   0.79717
C     0.16184   3.87599   1.23974
H     0.73613   4.67843   1.65404
C    -2.57631   2.08195  -0.20244
H    -3.41881   2.39721   0.41836
H    -2.53712   0.98526  -0.23248
C    -2.76025   2.62102  -1.62027
H    -1.84923   2.44625  -2.21128
H    -3.59412   2.09293  -2.10930
C    -3.11095   4.61370  -2.80207
H    -2.16848   4.50546  -3.35199
H    -3.31143   5.66793  -2.62386
H    -3.92096   4.18280  -3.40312
C     2.04030   2.22974   1.35870
H     2.74176   2.99332   1.00849
H     2.24559   1.29728   0.81340
C     2.20834   1.98875   2.85882
H     2.04540   2.92381   3.39946
H     1.45184   1.27538   3.19197
C     3.59424   1.43967   3.18253
H     4.35507   2.16157   2.87542
H     3.75923   0.52233   2.61137
C     3.73979   1.14026   4.66877
H     3.59824   2.04460   5.25605
H     4.72872   0.74265   4.88367
H     2.99727   0.40980   4.98166
N    -1.34857   2.55276   0.38089
N     0.69718   2.63225   1.02724
O    -3.03423   4.00033  -1.54108
C     0.22931  -1.81504  -0.49774
C     1.12537  -3.82697  -0.83002
H     1.89062  -4.57337  -0.79892
C    -0.16210  -3.87576  -1.24055
H    -0.73654  -4.67815  -1.65474
C     2.57650  -2.08189   0.20103
H     3.41887  -2.39712  -0.41997
H     2.53732  -0.98521   0.23119
C     2.76072  -2.62112   1.61876
H     1.84979  -2.44646   2.20995
H     3.59466  -2.09307   2.10773
C     3.11159  -4.61405   2.80016
H     2.16915  -4.50601   3.35019
H     3.31212  -5.66824   2.62169
H     3.92163  -4.18325   3.40123
C    -2.04065  -2.22948  -1.35831
H    -2.74204  -2.99274  -1.00727
H    -2.24534  -1.29675  -0.81322
C    -2.20977  -1.98893  -2.85837
H    -2.04915  -2.92453  -3.39875
H    -1.45231  -1.27709  -3.19265
C    -3.59502  -1.43743  -3.18078
H    -4.35688  -2.15734  -2.87154
H    -3.75722  -0.51900  -2.61057
C    -3.74225  -1.13966  -4.66717
H    -3.60387  -2.04511  -5.25349
H    -4.73058  -0.73995  -4.88096
H    -2.99851  -0.41138  -4.98224
N     1.34863  -2.55265  -0.38208
N    -0.69737  -2.63207  -1.02761
O     3.03472  -4.00042   1.53930
I     0.81045   0.72225  -2.24018
O    -0.53733  -0.47907   1.48468
