52

Mn    0.00000   0.00000   0.00000
C    -3.29898  -1.65932  -1.79900
C    -2.54645  -1.14524  -0.70301
C    -3.23140  -0.77644   0.47808
C    -4.62174  -0.94384   0.55369
H    -5.13331  -0.66799   1.46394
C    -5.32495  -1.43021  -0.51839
H    -6.39660  -1.54285  -0.46226
C    -4.66763  -1.78192  -1.69871
H    -5.24901  -2.15391  -2.52755
O    -2.54910  -1.98259  -2.89634
C    -3.22525  -2.33048  -4.07880
H    -3.78657  -3.26377  -3.96188
H    -2.45171  -2.46907  -4.83286
H    -3.90434  -1.53428  -4.39833
O    -1.25323  -1.06771  -0.79920
C    -2.50788  -0.24852   1.59791
H    -3.10925  -0.08882   2.49868
N    -1.25852   0.04969   1.62569
C    -0.74892   0.60676   2.85525
H    -1.50454   0.59908   3.64822
H    -0.43460   1.63543   2.66386
H     0.13209   0.05345   3.18035
C     3.40214   0.46206   2.17320
C     2.59708   0.33238   0.99503
C     3.23707  -0.05637  -0.21478
C     4.63249  -0.23566  -0.23554
H     5.10900  -0.50194  -1.16814
C     5.37480  -0.08202   0.90332
H     6.44426  -0.22544   0.88208
C     4.76053   0.25784   2.11450
H     5.37255   0.35981   2.99679
O     2.69496   0.76775   3.30183
C     3.40906   1.06988   4.47337
H     3.95318   0.19674   4.85100
H     2.66158   1.37196   5.20549
H     4.11216   1.89291   4.31306
O     1.33710   0.59764   1.06489
C     2.47706  -0.21875  -1.40782
H     3.05654  -0.39872  -2.31693
N     1.18688  -0.13492  -1.49849
C     0.61568  -0.19252  -2.82365
H     1.35015  -0.51574  -3.56867
H     0.24354   0.79998  -3.09607
H    -0.23874  -0.87569  -2.82044
O     0.66979  -2.16024   0.66002
H     0.50767  -2.74444  -0.09205
C     1.67952  -2.71428   1.47645
H     2.63268  -2.79351   0.94313
H     1.38146  -3.70299   1.84044
H     1.80901  -2.04645   2.32621
O    -0.58467   1.45981  -0.49962
