54

C     0.93077   1.82032   0.42090
C     0.60917   0.34670  -1.88303
C     1.88090  -0.02817  -2.27965
H     2.57788  -0.44359  -1.56552
C     2.27720   0.14070  -3.59530
H     3.27537  -0.15245  -3.88735
C     1.41358   0.68435  -4.53618
C     0.14506   1.06736  -4.12495
H    -0.54263   1.50418  -4.83459
C    -0.25483   0.90211  -2.80985
H    -1.24644   1.21875  -2.51692
C     1.84014   0.83564  -5.96414
H     2.89386   1.09759  -6.02621
H     1.25518   1.60254  -6.46530
H     1.69519  -0.10489  -6.49696
C    -0.23378  -3.50212  -0.23522
C     0.77906  -3.52090   0.71606
H     1.09529  -2.60559   1.19533
C     1.37265  -4.72324   1.06007
H     2.15531  -4.73866   1.80292
C     0.96131  -5.89932   0.45654
H     1.42438  -6.83582   0.72868
C    -0.04448  -5.88009  -0.49887
H    -0.36280  -6.79837  -0.96979
C    -0.64324  -4.68626  -0.84964
H    -1.42462  -4.66035  -1.59835
C    -1.21493  -2.09676  -2.49101
C    -0.08339  -2.46792  -3.21580
H     0.81787  -2.75402  -2.68955
C    -0.11914  -2.47012  -4.59532
H     0.75788  -2.76090  -5.15375
C    -1.27619  -2.09398  -5.25990
H    -1.30071  -2.08851  -6.33919
C    -2.40146  -1.72676  -4.54192
H    -3.30394  -1.43769  -5.05978
C    -2.37499  -1.72212  -3.15861
H    -3.25530  -1.43698  -2.59924
C    -2.72375  -2.02474  -0.03318
C    -3.47722  -0.85416  -0.11483
H    -3.04658   0.03055  -0.57203
C    -4.75346  -0.81878   0.41046
H    -5.33510   0.08892   0.35194
C    -5.27482  -1.94382   1.03059
H    -6.26761  -1.91168   1.45299
C    -4.51870  -3.09944   1.12904
H    -4.91966  -3.96705   1.63091
C    -3.24013  -3.14672   0.60245
H    -2.64189  -4.04064   0.70158
F     2.26421   1.81660   0.15166
F     0.42700   2.85062  -0.31383
F     0.83953   2.23900   1.70089
P    -1.04337  -1.95370  -0.69286
Au    0.00000   0.00000   0.00000
O    -0.50677  -0.41942   1.51320
