37

C    -2.62120  -1.19404  -0.35496
H    -2.24011  -1.33805  -1.35737
C    -3.76551  -1.83561   0.05504
H    -4.27053  -2.51932  -0.60730
C    -4.24190  -1.58861   1.34089
H    -5.11231  -2.10279   1.71710
C    -3.59847  -0.64765   2.10499
H    -3.93643  -0.37188   3.08999
C    -2.45909   0.00141   1.59823
C    -1.05503   1.91869   1.96704
C    -1.12947   3.12543   2.65706
H    -1.89055   3.24115   3.41192
C    -0.24328   4.14174   2.36019
H    -0.30418   5.08230   2.88412
C     0.72476   3.94928   1.39472
H     1.43406   4.72132   1.14288
C     0.80700   2.72908   0.72962
C    -0.08923   1.69863   0.99165
C     2.43396   1.53344  -0.57732
C     3.67656   1.70924  -1.20579
H     4.01127   2.71687  -1.38867
C     4.42315   0.60869  -1.55065
H     5.37932   0.72478  -2.03667
C     3.93037  -0.65384  -1.23306
H     4.49801  -1.54521  -1.44224
C     2.68690  -0.75087  -0.65277
H     2.26486  -1.71371  -0.39730
Cl    0.49723  -1.13434   1.93052
N    -1.93707  -0.33232   0.41106
N     1.92609   0.31441  -0.36765
O    -1.99945   0.98840   2.35820
O     1.83678   2.66046  -0.19140
O     0.20747  -1.92302  -1.53447
Rh    0.00000   0.00000   0.00000
H    -0.42353  -2.64799  -1.54002
H     0.03120  -1.35123  -2.30134
O    -0.35746   0.69078  -1.45518
