41

Zr    0.00000   0.00000   0.00000
Cl    0.33528  -1.76529  -1.49142
C     1.90328   0.88833  -2.78790
H     0.99004   1.23708  -3.27295
H     2.05891  -0.15866  -3.04713
H     2.74242   1.46705  -3.17969
C     1.81365   1.05221  -1.29812
C     1.11215   2.08568  -0.62795
H     0.67059   2.95057  -1.10824
C     1.34688   1.93831   0.77732
C     0.94033   2.67724   1.90647
H     0.33859   3.57023   1.78870
C     1.36396   2.27841   3.15077
H     1.06426   2.83944   4.02363
C     2.20404   1.16385   3.31791
H     2.52394   0.89913   4.31408
C     2.62994   0.42170   2.24513
H     3.28901  -0.42503   2.37990
C     2.20114   0.78268   0.95372
C     2.44950   0.22970  -0.33780
H     3.11015  -0.60168  -0.55623
C    -2.07642   0.98594   2.61322
H    -1.33304   0.35498   3.10985
H    -3.05393   0.74554   3.03295
H    -1.85321   2.02969   2.82939
C    -2.07051   0.73576   1.13211
C    -1.75625   1.69037   0.13329
H    -1.63791   2.75376   0.30110
C    -1.91318   1.06036  -1.14353
C    -1.75043   1.51162  -2.46913
H    -1.46510   2.53830  -2.66674
C    -2.01301   0.64548  -3.50282
H    -1.89858   0.97950  -4.52366
C    -2.45271  -0.66875  -3.26637
H    -2.66390  -1.30524  -4.11186
C    -2.62099  -1.14906  -1.99217
H    -2.96629  -2.15919  -1.81842
C    -2.33730  -0.30388  -0.90254
C    -2.39221  -0.49359   0.50923
H    -2.74080  -1.38553   1.01688
O     0.17110  -1.02975   1.27783
