56

Pd    0.00000   0.00000   0.00000
N     0.61274  -0.10915  -2.27887
H     0.05190  -0.93596  -2.49825
H     1.58105  -0.29431  -2.53142
C     1.12043   2.70324  -1.23506
C     0.85917   2.32897  -2.55974
C     1.31421   3.13797  -3.59888
H     1.09383   2.85258  -4.61771
C     2.03781   4.28938  -3.36523
H     2.37479   4.89485  -4.19260
C     2.33724   4.64428  -2.06157
H     2.92225   5.52762  -1.85397
C     1.87966   3.85889  -1.02461
H     2.11854   4.13501  -0.00741
C     0.66705   2.02680   0.02672
C    -0.33474   2.87268   0.81186
H    -0.28393   2.58667   1.86435
H    -0.04147   3.92493   0.72832
C    -1.78160   2.73298   0.34454
H    -2.44009   3.29911   1.00133
H    -2.08287   1.67804   0.36644
H    -1.89269   3.12249  -0.66637
C     1.55718   1.19877   0.71336
C     2.90600   0.79568   0.16129
H     3.68492   1.29176   0.74963
H     3.00902   1.13669  -0.87389
C     3.10376  -0.72327   0.23739
H     4.01271  -1.01763  -0.28381
H     2.24704  -1.24742  -0.21391
H     3.18069  -1.04497   1.27440
C     1.22676   0.75574   2.10815
C     2.07121   1.12608   3.29598
H     3.07012   0.69598   3.17717
H     1.62932   0.69307   4.19502
C     2.20235   2.63941   3.45961
H     2.88178   2.87565   4.27586
H     1.23572   3.08708   3.67857
H     2.58934   3.08804   2.54692
C     0.13795   0.00129   1.99423
C    -0.72054  -0.71459   2.97422
H    -0.42565  -0.45229   3.99668
H    -0.58922  -1.79310   2.83994
C    -2.19189  -0.36375   2.73406
H    -2.83983  -0.95838   3.37374
H    -2.44101  -0.57233   1.68998
H    -2.36988   0.69139   2.93773
C     0.11183   1.06813  -2.96842
H     0.18227   0.97586  -4.06655
C    -1.37241   1.21260  -2.64385
O    -1.98044   2.03844  -3.49398
O    -1.92901   0.63331  -1.74939
C    -3.37824   2.22670  -3.29324
H    -3.74040   2.76088  -4.16745
H    -3.55648   2.81073  -2.38869
H    -3.87694   1.26122  -3.19311
O    -0.60350  -1.52804  -0.15293
