40

Ti    0.00000   0.00000   0.00000
Cl    1.35225   1.72705   0.02114
Cl   -0.30468  -0.96144  -1.94332
N     2.32343  -1.18506  -0.53760
C     2.05989  -1.96642   1.79404
H     2.01888  -3.03706   1.58709
H     2.48969  -1.84385   2.79227
C     2.96584  -1.25509   0.77746
H     3.13755  -0.22831   1.11591
H     3.93895  -1.77232   0.71284
C     0.68531  -1.36627   1.74734
C     0.34249  -0.10940   2.32049
C    -1.03861   0.11648   2.09108
C    -1.55284  -0.99579   1.36448
C    -0.48976  -1.92082   1.15790
C     1.20647   0.76281   3.18326
H     1.41503   1.71654   2.69598
H     2.15504   0.27963   3.40635
H     0.69344   0.96896   4.12385
C    -1.80678   1.27952   2.63761
H    -1.24144   2.20303   2.51081
H    -1.99195   1.13321   3.70452
H    -2.76369   1.38951   2.13349
C    -2.97960  -1.23296   0.97081
H    -3.51053  -0.28956   0.85808
H    -3.48920  -1.82640   1.73406
H    -3.02931  -1.76933   0.02272
C    -0.70248  -3.31199   0.62850
H     0.10686  -3.97552   0.92906
H    -0.78278  -3.32012  -0.46050
H    -1.63040  -3.71444   1.03680
C     3.12436  -0.35829  -1.44165
H     3.31813   0.61712  -1.00031
H     2.57483  -0.21914  -2.37453
H     4.08854  -0.83795  -1.66508
C     2.26247  -2.52047  -1.13275
H     1.83980  -2.45098  -2.13265
H     1.63208  -3.17855  -0.54522
H     3.26892  -2.95955  -1.20496
O    -1.20716   1.04083  -0.42654
