16

Pt    0.00000   0.00000   0.00000
Cl    1.42023  -0.64359   1.79361
Cl   -1.45122   0.65495  -1.75697
Cl    0.08631   2.25623   0.73938
N    -1.68350  -0.36345   1.15334
H    -1.49342  -0.12605   2.13045
H    -1.92463  -1.35730   1.08330
H    -2.46576   0.20011   0.80790
N     1.69524   0.40104  -1.07143
H     1.77831   1.42627  -1.06361
H     2.46639   0.02206  -0.50602
C     1.78481  -0.10108  -2.44722
H     2.73412   0.18786  -2.90309
H     0.96426   0.30735  -3.03638
H     1.70455  -1.18762  -2.44353
O    -0.08578  -1.57605  -0.48084
