33

Br    1.01793   2.15968   0.43697
C    -1.12125  -0.49949   3.19727
C    -0.16867  -1.56558   4.91680
C     0.90709  -1.42574   2.96521
C    -3.28394   1.25684   1.19436
H    -3.51294   1.69591   0.24256
C    -4.06909   1.24502   2.36900
H    -5.03772   1.67970   2.50133
C    -3.32303   0.56265   3.28349
H    -3.49545   0.29894   4.30587
C     0.41033  -2.92514   7.99691
H     1.04575  -3.47572   8.66155
C    -0.87178  -2.37536   8.26441
H    -1.41668  -2.42168   9.18407
C    -1.24352  -1.78314   7.09765
H    -2.11838  -1.24229   6.80479
C     3.24272  -1.73562   0.47207
H     3.55062  -1.54705  -0.53844
C     3.94168  -2.42205   1.49071
H     4.90944  -2.87215   1.41599
C     3.11637  -2.38166   2.57508
H     3.20128  -2.75961   3.57310
Hg    0.00000   0.00000   0.00000
N    -0.08331  -0.73872   2.40506
N     0.91537  -1.85994   4.21177
N    -1.22054  -0.88576   4.45762
N    -2.15059   0.63019   1.38396
N    -2.16585   0.20279   2.65814
N    -0.21716  -1.98875   6.21017
N     0.78438  -2.68614   6.77169
N     1.99823  -1.70186   2.18956
N     2.08250  -1.31112   0.90576
O    -0.71231  -1.36947  -0.58280
