55

Os    0.00000   0.00000   0.00000
Cl   -1.85040   1.22724   0.69131
N    -0.97154  -0.12561  -1.76952
N     0.96500   0.15885   1.77103
N    -0.96164  -1.69276   0.16629
N     1.58985  -1.09865  -0.28643
N     2.45623  -1.21555   0.66943
N    -1.70794  -2.09310  -0.81395
C    -1.01126   0.75655  -2.76599
C    -1.84148   0.60899  -3.85771
C    -2.67716  -0.50624  -3.93334
C    -2.65910  -1.42272  -2.90946
C    -1.79752  -1.20703  -1.82455
C     0.64111   0.88628   2.83799
C     1.47600   1.02165   3.92771
C     2.71258   0.37488   3.92399
C     3.07030  -0.37190   2.82723
C     2.17716  -0.46142   1.75018
C     1.75112  -2.00727  -1.33773
C     2.11968  -3.33067  -1.08793
C     2.19841  -4.21877  -2.14166
C     1.93052  -3.80134  -3.43594
C     1.60462  -2.47634  -3.70253
C     1.52341  -1.58383  -2.64457
C    -0.65638  -2.28696   2.48011
C    -0.33086  -3.20802   3.46290
C    -0.06116  -4.51999   3.08714
C    -0.14542  -4.90871   1.75999
C    -0.47203  -3.99227   0.78020
C    -0.70142  -2.66311   1.13947
C     1.33046  -2.00207  -5.09639
C    -0.25118  -2.77892   4.89544
H    -0.35265   1.61032  -2.66638
H    -1.84231   1.35648  -4.63399
H    -3.33464  -0.63943  -4.77883
H    -3.29222  -2.29377  -2.89455
H    -0.32280   1.37815   2.79823
H     1.17038   1.62924   4.76360
H     3.38084   0.46988   4.76617
H     4.01704  -0.87943   2.75003
H     2.31693  -3.63616  -0.07218
H     2.46765  -5.24752  -1.95454
H     1.98723  -4.50990  -4.24922
H     1.31866  -0.54013  -2.82908
H    -0.91654  -1.27411   2.74776
H     0.20406  -5.24535   3.84228
H     0.04837  -5.93549   1.48790
H    -0.53669  -4.27210  -0.25975
H     0.27577  -1.74765  -5.20261
H     1.91046  -1.10756  -5.31415
H     1.57699  -2.76831  -5.82642
H    -1.00712  -2.02889   5.11461
H    -0.38474  -3.62490   5.56469
H     0.72605  -2.33719   5.09421
O     0.80718   1.38437  -0.39303
