41

C     3.63404   0.45233  -0.57579
H     2.75822   1.08731  -0.58799
C     4.57668   0.51334  -1.57820
H     4.44484   1.20680  -2.39424
C     5.69917  -0.31295  -1.55396
H     6.42422  -0.24848  -2.35050
C     5.89650  -1.21589  -0.52775
H     6.76189  -1.85897  -0.50487
C     4.94521  -1.28030   0.47735
C     3.80961  -0.45471   0.46756
C     2.95126  -0.68310   1.59632
C     3.43306  -1.66455   2.41256
C     1.32895  -1.39304   4.08296
C     0.79990  -0.40472   3.30520
C    -0.43511   0.09629   3.84059
C    -0.79835  -0.53501   5.04092
C    -1.95915  -0.19452   5.71610
H    -2.22322  -0.69105   6.63627
C    -2.76258   0.78943   5.17418
H    -3.67403   1.06815   5.68000
C    -2.41596   1.42521   3.98294
H    -3.06415   2.18758   3.57943
C    -1.25911   1.08968   3.31491
H    -0.98337   1.57565   2.38837
C     1.93207   1.89707   2.12433
C     2.78551   2.12775   3.19901
H     3.12857   1.29534   3.79956
C     3.18541   3.41784   3.48847
H     3.84687   3.60211   4.32186
C     2.73800   4.47454   2.70977
H     3.05386   5.48119   2.93905
C     1.88830   4.24512   1.64001
H     1.54144   5.06972   1.03564
C     1.48279   2.95587   1.34538
H     0.81673   2.75960   0.51311
S     0.37491  -1.74298   5.50358
S     4.95158  -2.33500   1.86922
S     2.78332  -2.33404   3.88539
P     1.40078   0.20424   1.73140
Au    0.00000   0.00000   0.00000
O    -1.03076  -0.07598  -1.28618
