37

Pd    0.00000   0.00000   0.00000
Br    1.83089  -0.43728  -4.49725
Cl   -1.69267  -1.25263   0.79884
S     0.70407  -1.60400   2.66698
S     1.55348   1.54893  -0.35680
O     0.79074  -3.66106   1.00208
O     2.79718   1.26470   0.37238
C     1.23680  -1.35842   0.97029
H     2.26929  -1.00400   0.92389
C     0.96665  -2.66157   0.32511
C     0.72940  -2.63373  -1.15031
C     1.33993  -1.69197  -1.99094
H     2.15155  -1.06277  -1.63429
C     0.96513  -1.65701  -3.32330
C    -0.00581  -2.50476  -3.83529
H    -0.29341  -2.43363  -4.87312
C    -0.59059  -3.43836  -2.99908
H    -1.34375  -4.10571  -3.38846
C    -0.21970  -3.51240  -1.66727
H    -0.67745  -4.22475  -0.99820
C     0.50659   0.14293   3.12465
H     1.37574   0.70511   2.78464
H     0.39384   0.21702   4.20199
H    -0.41051   0.48958   2.62960
C     2.28730  -1.90760   3.51941
H     2.62011  -2.89518   3.21688
H     2.11857  -1.89319   4.59068
H     3.01581  -1.15596   3.23446
C     2.00339   2.25554  -1.96649
H     2.68044   1.57400  -2.46875
H     2.48723   3.21142  -1.80720
H     1.08118   2.36135  -2.52720
C     0.86717   3.06360   0.38220
H     0.10285   3.43354  -0.29226
H     1.67045   3.77922   0.52056
H     0.41843   2.80334   1.34013
O    -0.92859   0.96778  -0.96105
