45

Rh    0.00000   0.00000   0.00000
Cl   -0.74173   0.79911   1.98531
S     0.69441  -0.74452  -2.10920
S     2.00338  -0.22420   0.98973
O     2.26755   1.91086  -1.56808
O    -1.54537   3.91179  -3.04671
O     2.93279  -1.03571   0.22750
O    -0.02199   0.06429  -3.09209
N     0.15112   1.90261  -0.69833
N     0.55699   3.16176  -2.49773
H     1.09072   3.52052  -3.27421
N    -1.85389   0.21873  -0.81244
C     1.09746   2.25418  -1.56037
C    -0.78039   3.28463  -2.36118
C    -1.11128   2.49805  -1.07899
C    -2.13419   1.42513  -1.31423
C    -3.32300   1.67385  -1.98758
H    -3.48975   2.65243  -2.40894
C    -4.24188   0.65130  -2.12768
H    -5.16729   0.81602  -2.65778
C    -3.95631  -0.58496  -1.56582
H    -4.65398  -1.40429  -1.62986
C    -2.74839  -0.76178  -0.91980
H    -2.48685  -1.70693  -0.45875
C    -1.61959   3.48605  -0.01319
H    -1.81298   2.95135   0.91339
H    -2.52690   3.97070  -0.36224
H    -0.85697   4.23901   0.16873
C     2.41695  -0.84690  -2.66217
H     2.85942   0.13555  -2.53549
H     2.40439  -1.13666  -3.70606
H     2.92823  -1.56419  -2.03358
C     0.23808  -2.47342  -2.46462
H     0.78617  -3.11214  -1.78290
H     0.48610  -2.68143  -3.49891
H    -0.82851  -2.58712  -2.30410
C     2.81184   1.34372   1.38926
H     3.72732   1.14046   1.93206
H     2.11211   1.92473   1.97904
H     3.02460   1.83718   0.44596
C     1.95716  -0.93145   2.66344
H     1.34234  -0.29290   3.28642
H     2.97982  -0.98733   3.01742
H     1.52365  -1.92396   2.60036
O    -0.18125  -1.57017   0.47352
