27

Zn    0.00000   0.00000   0.00000
Cl   -1.15789  -1.61870   0.95469
N     1.21715  -1.11443  -1.39301
C     1.77118  -0.50502  -2.43635
C     2.43845  -1.19159  -3.43421
C     2.52855  -2.58070  -3.33571
C     1.94191  -3.21684  -2.24081
C     1.29657  -2.43797  -1.29802
C     3.20357  -3.33337  -4.33075
N     3.75213  -3.94079  -5.13073
N     1.37104   0.53107   1.58102
C     1.49795  -0.25666   2.64422
C     2.25562   0.09349   3.74662
C     2.90813   1.32707   3.73670
C     2.76739   2.15351   2.62106
C     1.98690   1.70901   1.56960
C     3.69966   1.73303   4.84169
N     4.34167   2.05767   5.73179
H     1.65930   0.56994  -2.46820
H     2.87450  -0.66756  -4.27006
H     1.98688  -4.28934  -2.13558
H     0.81068  -2.87862  -0.43856
H     0.95818  -1.19261   2.60404
H     2.33693  -0.56781   4.59480
H     3.25172   3.11652   2.58228
H     1.83219   2.31300   0.68625
O    -0.17602   1.43906  -0.78780
