21

Pd    0.00000   0.00000   0.00000
Cl    0.05117  -1.98823  -0.98341
S    -1.58092  -0.61598   1.45441
O    -2.93189  -0.11351   1.29199
O     0.78542   3.28191   3.32101
O    -1.11870   2.88459   4.42757
N    -0.00891   1.88924   1.12122
C    -0.28895   2.75475   3.40030
C    -0.84176   1.82029   2.32027
C    -0.86697   0.38471   2.85102
C    -1.65965  -2.22506   2.30032
H    -2.27585  -2.13714   3.18685
H    -1.87586   2.10234   2.08606
H    -2.09806  -2.93089   1.60295
H    -0.64329  -2.52169   2.53462
H    -0.74967   3.47105   5.10858
H    -1.49219   0.29896   3.73655
H     0.14435   0.01336   3.03600
H    -0.29341   2.64032   0.49004
H     0.96641   2.08544   1.38338
O     1.18062   0.60927  -0.97848
