37

Re    0.00000   0.00000   0.00000
F     4.64402  -5.16753  -7.45130
F     2.83996  -4.03102  -7.79782
F     2.80073  -5.72145  -6.46988
O     0.56539  -1.85137   2.40517
O    -3.07734  -0.02053   0.33366
O     0.26318   2.64615   1.58389
O     5.01861  -3.44941  -5.38723
N     0.04820  -1.62040  -1.41018
N     2.04808  -0.04087  -0.64303
N     2.74473  -3.37873  -5.04937
H     1.87666  -3.74115  -5.42266
C     0.34953  -1.15727   1.51919
C    -1.93530  -0.01768   0.26883
C     0.14521   1.64121   1.05092
C    -0.96342  -2.39522  -1.76042
H    -1.87004  -2.31003  -1.17583
C    -0.89498  -3.28656  -2.82632
H    -1.75103  -3.89703  -3.06312
C     0.26163  -3.37396  -3.56786
H     0.30427  -4.07614  -4.38713
C     1.35602  -2.56180  -3.22988
C     2.61666  -2.54977  -3.92514
C     3.64081  -1.75544  -3.50504
H     4.58330  -1.75897  -4.02686
C     3.49886  -0.89485  -2.38643
C     4.52647  -0.04891  -1.94022
H     5.47762  -0.04824  -2.44945
C     4.28620   0.76744  -0.86010
H     5.04470   1.43516  -0.48480
C     3.03583   0.74150  -0.24303
H     2.83240   1.38505   0.60311
C     2.27073  -0.85615  -1.69747
C     1.19659  -1.70058  -2.12015
C     3.88877  -3.74640  -5.66528
C     3.56205  -4.68215  -6.86922
O    -0.21494   0.90723  -1.36134
