63

Pt    0.00000   0.00000   0.00000
Cl   -0.11437  -0.71414   2.19576
P     0.21763   0.60876  -2.17233
P     1.40803   1.63017   0.68162
N     0.76466   2.15957  -2.57492
C     1.40931   3.07687  -0.48229
H     2.00030   3.89289  -0.05651
C     1.94566   2.68281  -1.89454
H     2.79801   2.00530  -1.89627
C     2.09663   3.99629  -2.61843
H     3.03353   4.48949  -2.79269
C     0.86503   4.40293  -2.90130
H     0.54085   5.31234  -3.36880
C    -0.06269   3.34561  -2.35619
H    -1.05570   3.28207  -2.79455
C    -0.02899   3.50859  -0.81278
H    -0.25873   4.52468  -0.49824
H    -0.75550   2.82070  -0.36505
C     1.11090   2.43993   2.27638
C    -0.21333   2.57674   2.68173
H    -1.00159   2.16078   2.06662
C    -0.50954   3.19600   3.88055
H    -1.53682   3.29404   4.19822
C     0.51461   3.67488   4.68224
H     0.28497   4.15088   5.62405
C     1.83379   3.52807   4.28672
H     2.63138   3.88782   4.92033
C     2.13733   2.91076   3.08594
H     3.16807   2.77886   2.78900
C     3.13546   1.07794   0.68471
C     3.33071  -0.29684   0.78671
H     2.46406  -0.94175   0.89217
C     4.60887  -0.82321   0.76496
H     4.75527  -1.88965   0.84590
C     5.69986   0.02109   0.63780
H     6.70005  -0.38568   0.61920
C     5.51114   1.39013   0.53205
H     6.36351   2.04643   0.43167
C     4.23453   1.92264   0.55286
H     4.09685   2.99099   0.46078
C     1.53356  -0.36889  -2.94377
C     2.25406   0.08194  -4.04585
H     2.02156   1.04417  -4.47996
C     3.27050  -0.69890  -4.56522
H     3.82983  -0.35211  -5.42221
C     3.57409  -1.92294  -3.98936
H     4.36960  -2.52716  -4.40021
C     2.86260  -2.36980  -2.88769
H     3.10213  -3.32185  -2.43826
C     1.84528  -1.59367  -2.36325
H     1.27400  -1.93099  -1.50463
C    -1.24617   0.51976  -3.23665
C    -1.16771   0.24810  -4.59584
H    -0.20900   0.04945  -5.05227
C    -2.32586   0.21722  -5.35284
H    -2.27071  -0.00192  -6.40923
C    -3.55448   0.45636  -4.75896
H    -4.45516   0.42381  -5.35421
C    -3.63296   0.72377  -3.40127
H    -4.59261   0.89779  -2.93767
C    -2.48029   0.75288  -2.63958
H    -2.52536   0.92646  -1.57058
O    -0.99155  -1.21316  -0.51727
