41

Pd    0.00000   0.00000   0.00000
Cl   -0.99135  -1.10501  -1.74563
N    -1.26659  -0.83737   1.25737
O    -4.96342  -1.99527   4.20189
N    -3.93316  -2.58903   3.97494
C    -2.69413   1.07145   0.85026
O    -3.60746  -3.64508   4.46903
C    -3.33020  -0.77680   2.43218
C    -3.01313  -1.98506   3.03492
C    -1.81380  -2.61423   2.73579
C    -0.95501  -2.00561   1.83226
C    -2.42374  -0.22554   1.53844
C     0.35274  -2.62177   1.45933
H    -4.26302  -0.28749   2.66285
H    -1.56689  -3.55436   3.20266
H    -1.91104   1.79036   1.12054
H    -3.66080   1.47308   1.14106
H    -2.68375   0.91003  -0.23461
H     0.37181  -2.79269   0.37603
H     1.16336  -1.93651   1.73575
H     0.49788  -3.56876   1.97161
N     1.26663   0.83732  -1.25736
C     0.95506   2.00556  -1.83225
C     1.81384   2.61418  -2.73578
C     3.01317   1.98501  -3.03491
N     3.93321   2.58898  -3.97492
O     4.96346   1.99522  -4.20188
O     3.60750   3.64502  -4.46903
C     3.33024   0.77675  -2.43217
C     2.42378   0.22549  -1.53843
C     2.69417  -1.07150  -0.85025
H     1.91108  -1.79041  -1.12053
H     3.66084  -1.47313  -1.14106
H     2.68379  -0.91007   0.23462
H     4.26307   0.28745  -2.66284
H     1.56693   3.55431  -3.20265
C    -0.35270   2.62171  -1.45932
H    -0.37177   2.79264  -0.37602
H    -1.16332   1.93646  -1.73574
H    -0.49784   3.56871  -1.97161
O     0.71386   0.79561   1.25694
