43

Rh    0.00000   0.00000   0.00000
C     1.13941  -1.31876  -0.93705
N     1.78114  -1.12126  -2.10956
C     1.68635   0.07934  -2.89371
C     2.59712  -2.19215  -2.38941
C     2.44275  -3.09370  -1.32051
N     1.54254  -2.51527  -0.45671
C     1.15549  -3.04822   0.82057
C     3.13140  -4.29539  -1.28971
C     3.97345  -4.56814  -2.35301
C     4.12616  -3.67564  -3.41105
C     3.44331  -2.47305  -3.44969
C    -1.69589  -0.15170  -1.27193
C    -1.77736  -1.10743  -0.25431
C    -2.66735  -0.99166   0.96304
C    -2.57122   0.37615   1.66569
C    -1.21000   1.01411   1.49792
C    -0.90430   1.89734   0.48624
C    -1.84721   2.30096  -0.62440
C    -2.54422   1.10345  -1.29984
H     2.68161   0.49070  -3.06829
H     1.09480   0.80571  -2.32432
H     1.20538  -0.12025  -3.85434
H     0.53356  -3.93859   0.69964
H     0.59528  -2.27105   1.35256
H     2.04281  -3.30515   1.40076
H     3.01823  -4.98918  -0.47170
H     4.52707  -5.49457  -2.36364
H     4.79487  -3.92912  -4.21942
H     3.56657  -1.78404  -4.27029
H    -1.39958  -0.51031  -2.25765
H    -1.57019  -2.14299  -0.52874
H    -2.37563  -1.77412   1.66902
H    -3.70548  -1.19195   0.67341
H    -2.77165   0.23897   2.73036
H    -3.33225   1.05614   1.28017
H    -0.59528   1.04008   2.39775
H    -0.08489   2.59770   0.64875
H    -1.27086   2.84654  -1.37642
H    -2.59600   2.99507  -0.22691
H    -3.50041   0.89718  -0.81661
H    -2.76042   1.36494  -2.33808
O     1.43118   0.47398   0.67050
