17

Pt    0.00000   0.00000   0.00000
Cl   -0.87354   1.89101   0.82253
Cl    0.98234  -0.54256   2.14833
N     0.78419  -1.84449  -0.85364
N    -0.88327  -2.65734   1.47692
C    -0.13439  -2.98506  -0.86670
C    -0.32290  -3.60939   0.51542
H     1.69756  -2.12181  -0.49623
H     0.89318  -1.50749  -1.81255
H    -1.27161  -3.13301   2.28398
H     0.13938  -1.67184   1.98286
H    -1.61632  -2.09536   1.04224
H    -1.09458  -2.62330  -1.24636
H     0.22651  -3.77162  -1.54224
H    -0.96739  -4.48858   0.39470
H     0.64161  -3.94756   0.90749
O    -0.67862   0.24969  -1.48311
