52

Pt    0.00000   0.00000   0.00000
Cl    1.23822  -1.88199  -0.17104
P     1.74153   1.38317  -0.31913
C     2.86701   1.30141  -1.73885
C     2.28200   1.26559  -3.00251
C     3.07262   1.17027  -4.13038
C     4.45175   1.09808  -4.00250
C     5.03526   1.11731  -2.74695
C     4.24801   1.21595  -1.61256
C     2.84448   1.59024   1.11110
C     3.34080   2.81398   1.54501
C     4.18721   2.86149   2.63924
C     4.53749   1.69782   3.30500
C     4.03549   0.47772   2.88005
C     3.18890   0.42124   1.78772
N    -1.19001   1.84479   0.06383
O    -0.05776   3.00477   2.56273
C    -2.19645   1.65781  -0.99345
C    -1.84006   1.89973   1.38031
C    -0.82868   1.82333   2.51661
C     0.75899   3.07205   3.70291
H     1.44888   2.22189   3.75055
H     0.15492   3.08805   4.61869
H     1.32714   3.99625   3.62521
C    -0.44193   3.05451  -0.22424
C    -1.07934   4.28851  -0.28258
C    -0.38596   5.42330  -0.66148
C     0.94990   5.34223  -1.01929
C     1.59867   4.12478  -0.95332
C     0.91674   2.98763  -0.53085
H     1.20278   1.30280  -3.08483
H     2.61809   1.14315  -5.10959
H     5.07076   1.01749  -4.88360
H     6.10879   1.05031  -2.64887
H     4.70287   1.22290  -0.63218
H     3.05809   3.72678   1.04260
H     4.57383   3.81257   2.97570
H     5.19736   1.74391   4.15873
H     4.30058  -0.42948   3.40195
H     2.78326  -0.52365   1.44640
H    -2.70357   0.70573  -0.83154
H    -2.93740   2.46267  -0.99620
H    -1.69731   1.63643  -1.96351
H    -2.49599   1.02845   1.45432
H    -2.43038   2.81597   1.48919
H    -0.17369   0.93932   2.37190
H    -1.37231   1.69174   3.46391
H    -2.12763   4.37608  -0.03911
H    -0.89800   6.37310  -0.69624
H     1.48035   6.22440  -1.34455
H     2.63656   4.03882  -1.24492
O    -1.33596  -0.90784   0.33697
