41

Pd    0.00000   0.00000   0.00000
Cl    1.05417  -1.10807  -1.72065
N    -1.54565   0.37904  -1.21337
N    -1.47528   0.02889  -2.50077
H    -0.61434  -0.44391  -2.80660
C    -2.59746   0.35374  -3.16951
C    -2.73643   0.94491  -1.03494
H    -3.05010   1.31865  -0.07778
C    -3.43643   0.95662  -2.23680
H    -4.42332   1.33854  -2.39271
C    -2.79054   0.07805  -4.58251
C    -3.82910   0.69523  -5.28071
H    -4.47951   1.38686  -4.76836
C    -4.02117   0.43675  -6.62407
H    -4.82752   0.92242  -7.15329
C    -2.14920  -1.05898  -6.60733
H    -1.49421  -1.74507  -7.12314
C    -3.18231  -0.44022  -7.29210
H    -3.33346  -0.64106  -8.34202
C    -1.95086  -0.80535  -5.26346
H    -1.14872  -1.30594  -4.74261
N     1.54568  -0.37911   1.21331
N     1.47532  -0.02892   2.50070
H     0.61432   0.44376   2.80656
C     2.59757  -0.35356   3.16940
C     2.73651  -0.94485   1.03486
H     3.05018  -1.31863   0.07772
C     3.43658  -0.95639   2.23669
H     4.42353  -1.33815   2.39258
C     2.79057  -0.07786   4.58242
C     3.82892  -0.69519   5.28076
H     4.47930  -1.38692   4.76851
C     4.02078  -0.43681   6.62417
H     4.82692  -0.92265   7.15354
C     2.14906   1.05923   6.60715
H     1.49409   1.74542   7.12287
C     3.18193   0.44025   7.29208
H     3.33287   0.64098   8.34206
C     1.95091   0.80568   5.26324
H     1.14900   1.30648   4.74223
O    -0.75573   0.79396   1.23329
