61

Ti    0.00000   0.00000   0.00000
Cl   -1.66834  -1.58119   0.20386
O     1.23148  -1.04012   0.65860
O     0.02332  -0.12832  -1.73676
N    -0.43773   0.47178   1.95748
N    -1.52688   1.35621  -0.26967
C     0.36001   0.32123   2.94531
H     0.08881   0.73385   3.92669
C     1.61142  -0.37255   2.88372
C     2.43926  -0.39365   4.01576
H     2.12302   0.12855   4.90719
C     3.63700  -1.05929   3.98349
H     4.28029  -1.07137   4.84977
C     4.02998  -1.72805   2.82484
H     4.97792  -2.24041   2.83879
C     3.25290  -1.75218   1.68383
C     3.67184  -2.48773   0.41814
C     5.03577  -3.17228   0.55924
H     5.27744  -3.67872  -0.37279
H     5.02383  -3.91807   1.35069
H     5.82161  -2.44789   0.75970
C     3.76693  -1.48124  -0.73891
H     4.06147  -1.99397  -1.65216
H     4.51219  -0.72095  -0.51170
H     2.81186  -0.98281  -0.91288
C     2.62877  -3.57251   0.10748
H     2.89463  -4.09292  -0.81003
H     1.63476  -3.14451  -0.01359
H     2.59288  -4.29834   0.91806
C     2.01375  -1.05426   1.69808
C    -0.83832  -0.05174  -2.70861
C    -0.62258  -0.72070  -3.94502
C     0.63887  -1.55469  -4.12350
C     1.86381  -0.63833  -3.97862
H     2.77771  -1.21991  -4.07810
H     1.87466  -0.14052  -3.01011
H     1.85339   0.12393  -4.75581
C     0.66296  -2.66160  -3.05812
H     1.56027  -3.26613  -3.17265
H    -0.20697  -3.30641  -3.17010
H     0.65171  -2.24397  -2.05007
C     0.71122  -2.22518  -5.49968
H     1.63021  -2.80374  -5.56538
H     0.72362  -1.48764  -6.29885
H    -0.12365  -2.90534  -5.65105
C    -1.57635  -0.58916  -4.93466
H    -1.44305  -1.09271  -5.87802
C    -2.72669   0.18082  -4.76734
H    -3.44153   0.25250  -5.57245
C    -2.94194   0.84033  -3.58524
H    -3.82956   1.43952  -3.44232
C    -2.01449   0.73566  -2.53825
C    -2.25807   1.43998  -1.31529
H    -3.13798   2.09775  -1.30821
C    -1.83760   2.11408   0.91235
H    -1.09395   2.91965   0.99959
H    -2.84839   2.54786   0.87798
C    -1.68623   1.16788   2.11513
H    -1.73840   1.72484   3.06282
H    -2.49310   0.42121   2.08209
O     0.98940   1.32012   0.02981
