47

Zn    0.00000   0.00000   0.00000
N     1.12684   0.33517  -1.74390
N     1.12252  -1.77720  -0.06716
N     2.74146  -0.73168  -3.07319
N     2.70518  -2.85179  -1.42807
Cl   -2.05601  -0.47877  -0.62397
C     1.93537  -0.68110  -2.03888
C     1.10652   1.38640  -2.56406
C     1.92710   1.40493  -3.68602
H     1.89711   2.24284  -4.36233
C     2.76234   0.30808  -3.91209
C     3.67601   0.20059  -5.04937
C     4.08923   1.31413  -5.78070
H     3.76051   2.30404  -5.50335
C     4.95035   1.16176  -6.85095
H     5.26918   2.02927  -7.40938
C     5.40679  -0.09717  -7.20734
H     6.07555  -0.21019  -8.04751
C     5.00845  -1.20814  -6.48013
H     5.36724  -2.18916  -6.75364
C     4.15328  -1.06255  -5.40613
H     3.83176  -1.91355  -4.82666
C     1.92494  -1.84040  -1.12826
C     1.11373  -2.80602   0.78107
C     1.92093  -3.91131   0.53758
H     1.93165  -4.73358   1.23329
C     2.71521  -3.90982  -0.61184
C     3.60084  -5.00948  -0.99423
C     3.47339  -6.29106  -0.45832
H     2.68810  -6.51456   0.24743
C     4.33673  -7.29693  -0.84953
H     4.22884  -8.28720  -0.43261
C     5.33598  -7.04036  -1.77467
H     6.00973  -7.82955  -2.07330
C     5.46435  -5.77189  -2.31904
H     6.23944  -5.57157  -3.04365
C     4.60254  -4.76362  -1.93625
H     4.68468  -3.77006  -2.34789
C     0.18137   2.49316  -2.21545
H    -0.84017   2.11182  -2.18020
H     0.24186   3.30736  -2.93189
H     0.42000   2.86363  -1.21755
C     0.21856  -2.69779   1.95983
H     0.47139  -1.80005   2.52554
H     0.29560  -3.56942   2.60343
H    -0.81207  -2.58350   1.62060
O     0.59995   0.95111   1.20746
