30

C    -2.00525   2.27996   0.67963
H    -1.14593   2.85304   1.01708
H    -2.33440   1.66051   1.51175
H    -2.81200   2.97253   0.41411
C    -2.83704   0.63277  -0.80306
H    -3.12581   0.01430   0.04644
H    -2.62322  -0.01538  -1.65094
H    -3.67959   1.28217  -1.06559
C    -1.29287   2.23745  -1.63022
H    -2.11759   2.93397  -1.84526
H    -1.19817   1.55860  -2.48193
C    -0.00000   3.04541  -1.51282
H    -0.00000   3.74554  -2.35144
H    -0.00000   3.64546  -0.60383
N    -1.65202   1.42674  -0.45604
Br   -0.00000  -1.34034  -1.96357
Zn    0.00000   0.00000   0.00000
C     2.00525   2.27996   0.67963
H     1.14593   2.85304   1.01708
H     2.33440   1.66051   1.51175
H     2.81200   2.97253   0.41411
C     2.83704   0.63277  -0.80306
H     3.12581   0.01430   0.04644
H     2.62322  -0.01538  -1.65094
H     3.67959   1.28217  -1.06559
C     1.29287   2.23745  -1.63022
H     2.11759   2.93397  -1.84526
H     1.19817   1.55860  -2.48193
N     1.65202   1.42674  -0.45604
O     0.00000  -0.14999   1.64317
