38

Pt    0.00000   0.00000   0.00000
O    -3.41227   2.81233  -5.45867
N     1.65278  -0.61871  -0.97438
N    -1.35518   1.83352  -5.61350
H    -0.62686   1.60847  -6.27713
N    -1.80837   0.81761   0.36362
C     2.69069  -1.24980  -0.43430
H     2.62987  -1.43852   0.63103
C     3.79158  -1.65025  -1.17075
H     4.60845  -2.15961  -0.68612
C     3.81681  -1.38312  -2.53236
H     4.65940  -1.68190  -3.13748
C     2.74150  -0.72651  -3.10220
H     2.73052  -0.50436  -4.15755
C     1.65888  -0.34576  -2.31518
C     0.46964   0.34769  -2.80229
C     0.14000   0.77630  -4.08408
H     0.80811   0.61803  -4.92040
C    -1.08007   1.42546  -4.29943
C    -1.98556   1.65819  -3.26139
H    -2.91173   2.16131  -3.48130
C    -1.65958   1.23128  -1.97864
C    -0.44113   0.58666  -1.77358
C    -2.42178   1.34755  -0.73756
C    -3.67666   1.93812  -0.62927
H    -4.14179   2.34948  -1.51082
C    -4.31095   1.99046   0.59865
H    -5.28514   2.44584   0.69228
C    -3.67313   1.44747   1.70529
H    -4.13194   1.46681   2.68047
C    -2.42515   0.87301   1.54022
H    -1.89243   0.43800   2.37750
C    -2.45194   2.47429  -6.11205
C    -2.33702   2.72212  -7.60357
H    -2.26251   1.77569  -8.13565
H    -1.45430   3.32019  -7.82125
H    -3.22112   3.25287  -7.94428
O     0.38124  -0.50376   1.52426
