53

Hg    0.00000   0.00000   0.00000
O    -4.54221  -1.94729  -1.40482
O    -6.09875   0.40792  -1.65672
N    -1.28337  -2.06939   0.58639
C    -0.49061  -3.26772   0.59642
C    -2.53402  -2.13991   0.38041
C    -3.35359  -0.94161   0.33835
C    -4.36685  -0.84656  -0.63025
C    -5.09749   0.35630  -0.73155
C    -4.78844   1.41086   0.11771
C    -3.80316   1.29556   1.08619
C    -3.08519   0.12629   1.20063
C    -5.02256  -1.82017  -2.73038
C    -6.74008   1.63889  -1.89359
H    -1.11350  -4.17206   0.54915
H     0.09036  -3.27380   1.52476
H    -3.03137  -3.09627   0.19441
H    -5.33197   2.33823   0.04033
H    -3.60578   2.12507   1.74744
H    -2.35809  -0.00275   1.99260
H    -4.79176  -2.77274  -3.20733
H    -6.09961  -1.64838  -2.75612
H    -4.50835  -1.01479  -3.25852
H    -7.42346   1.45358  -2.72094
H    -7.31291   1.96972  -1.02146
H    -6.02402   2.41384  -2.18178
I    -1.14534   0.75243  -2.23057
O     4.53754  -1.94816   1.40556
O     6.09328   0.40799   1.65739
N     1.27805  -2.07050  -0.58438
C     0.48491  -3.26854  -0.59369
C     2.52861  -2.14107  -0.37817
C     3.34822  -0.94278  -0.33712
C     4.36180  -0.84740   0.63112
C     5.09202   0.35573   0.73221
C     4.78265   1.40999  -0.11731
C     3.79737   1.29421  -1.08576
C     3.07944   0.12483  -1.19963
C     5.01995  -1.82164   2.73040
C     6.73342   1.63951   1.89464
H     1.10741  -4.17312  -0.54555
H    -0.09605  -3.27510  -1.52204
H     3.02606  -3.09748  -0.19274
H     5.32600   2.33749  -0.04024
H     3.59984   2.12349  -1.74725
H     2.35183  -0.00445  -1.99106
H     4.79032  -2.77462   3.20708
H     6.09696  -1.64942   2.75456
H     4.50625  -1.01682   3.25989
H     7.41657   1.45477   2.72232
H     7.30639   1.97090   1.02282
H     6.01653   2.41381   2.18252
O     0.71926   0.47477   1.40704
