58

C    -3.52480   0.59109   0.44212
H    -4.45625   0.69946  -0.12626
C    -3.35510   1.75854   1.41236
H    -4.13991   1.74026   2.16681
H    -3.39813   2.71873   0.90312
H    -2.39435   1.67854   1.92013
C    -3.54830  -0.71986   1.22737
H    -2.57120  -0.92751   1.66069
H    -3.83949  -1.56439   0.60667
H    -4.26525  -0.64823   2.04326
C    -2.32821   2.04958  -1.87401
H    -1.86744   1.70894  -2.81383
C    -1.52028   3.24337  -1.37132
H    -1.44766   4.01163  -2.13998
H    -0.51367   2.92245  -1.10343
H    -1.97793   3.68780  -0.49085
C    -3.77584   2.43011  -2.15921
H    -4.25243   2.84944  -1.27681
H    -4.35741   1.57256  -2.49277
H    -3.80619   3.18299  -2.94614
C    -2.52795  -0.78576  -1.88912
H    -2.90017  -1.62460  -1.29788
H    -3.31370  -0.46911  -2.57950
C    -1.28439  -1.23488  -2.65262
H    -1.54564  -2.04403  -3.35852
H    -0.88917  -0.39926  -3.23995
C     1.02918  -1.98050  -2.25636
H     0.93903  -2.61460  -3.15615
H     1.56609  -2.55059  -1.49638
C     1.83117  -0.72419  -2.61038
H     1.35195  -0.20937  -3.44831
H     2.84190  -1.00528  -2.91482
C     3.48713   0.09580  -0.32462
H     4.31797   0.48764  -0.92433
C     3.67465  -1.40456  -0.11767
H     4.56746  -1.57609   0.48173
H     3.79696  -1.93869  -1.05769
H     2.82952  -1.81959   0.42819
C     3.45671   0.78170   1.04171
H     2.66058   0.35523   1.64896
H     3.28805   1.85250   0.95901
H     4.39858   0.62221   1.56381
C     2.26031   2.03843  -2.18832
H     1.33370   2.19136  -2.76337
C     2.44315   3.23600  -1.25856
H     3.43640   3.22680  -0.81535
H     1.70660   3.22415  -0.45516
H     2.33121   4.16764  -1.81174
C     3.42359   1.94941  -3.17145
H     3.50921   2.89263  -3.70991
H     3.27994   1.15774  -3.90219
H     4.36443   1.77780  -2.65406
N    -0.26761  -1.63907  -1.70447
H    -0.61591  -2.40021  -1.12801
P    -2.06690   0.58651  -0.72566
P     1.87772   0.48566  -1.19925
Cu    0.00000   0.00000   0.00000
O     0.18463  -0.97887   1.31538
