38

Au    0.00000   0.00000   0.00000
Cl   -0.54734   2.19512  -0.49616
O     0.93505  -2.67927  -1.49218
O     1.57919  -5.13049  -0.42940
O     1.76492  -5.39138   2.37845
N     0.59873   0.46733   1.89298
C     0.66083   1.71464   2.33647
H     0.61513   2.48750   1.58202
C     0.73713   1.99577   3.68473
H     0.81802   3.01440   4.02488
C     0.64324   0.93736   4.57288
H     0.61644   1.12770   5.63616
C     0.56767  -0.37351   4.11942
C     0.62497  -0.59695   2.73044
C     0.36662  -1.45726   5.13365
H     1.31574  -1.91281   5.41574
H    -0.30208  -2.22577   4.75510
H    -0.07070  -1.03126   6.03443
C     0.75202  -1.86127   2.02536
C     0.59711  -1.80068   0.63442
C     0.90764  -2.89515  -0.16188
C     1.27182  -4.12801   0.43277
C     1.37343  -4.19579   1.83463
C     1.14462  -3.06835   2.60527
H     1.33260  -3.12091   3.65897
C     0.49232  -3.66088  -2.41169
H     0.18946  -3.09705  -3.29372
H    -0.36870  -4.20989  -2.02723
H     1.29294  -4.35785  -2.66810
C     1.52506  -6.48741  -0.03954
H     1.54173  -7.04891  -0.97397
H     0.60588  -6.71372   0.50407
H     2.38579  -6.76774   0.56948
C     1.84233  -5.51461   3.77717
H     2.09915  -6.55722   3.95925
H     0.88453  -5.29036   4.25728
H     2.62515  -4.87540   4.19797
O    -0.74982  -0.48749  -1.38659
