48

I     2.15412  -1.46286   0.74000
Rh    0.00000   0.00000   0.00000
O     1.45936   2.41933   1.02549
N    -0.97837  -1.62261  -0.68868
N    -0.87702  -0.37210   1.77914
N    -2.03721  -1.02009   1.91900
N     0.76017   0.18689  -1.86055
N     0.90812  -0.83202  -2.71241
C    -2.30380  -1.82410  -0.38464
C    -2.85655  -1.44387   0.85513
C    -4.22904  -1.51276   1.06925
H    -4.63636  -1.15028   2.00117
C    -5.08772  -2.00835   0.10504
C    -4.53881  -2.44356  -1.09894
H    -5.18553  -2.83590  -1.86964
C    -3.19012  -2.34571  -1.34082
H    -2.78882  -2.64514  -2.29826
C    -6.56322  -2.05163   0.35663
H    -7.08373  -2.51292  -0.47798
H    -6.95113  -1.04270   0.49107
H    -6.78369  -2.61760   1.26095
C    -0.39844  -0.13975   3.00020
H     0.53930   0.36066   3.15578
C    -1.27012  -0.65498   3.95019
H    -1.15943  -0.63041   5.01365
C    -2.29974  -1.21202   3.22413
H    -3.16480  -1.74728   3.55595
C     1.08875   1.30252  -2.51007
H     1.03923   2.26737  -2.04042
C     1.45245   0.99485  -3.81413
H     1.75958   1.67533  -4.57992
C     1.32063  -0.37323  -3.90758
H     1.46308  -1.02267  -4.74597
C    -0.33415  -2.54779  -1.47542
C     0.66057  -2.18289  -2.40300
C     1.40292  -3.15610  -3.06779
H     2.20598  -2.84792  -3.72030
C     1.15252  -4.50171  -2.88808
C     0.12691  -4.86741  -2.01511
H    -0.08649  -5.91420  -1.85725
C    -0.58686  -3.92219  -1.32295
H    -1.34548  -4.22532  -0.61582
C     1.95074  -5.54614  -3.60414
H     2.81062  -5.10662  -4.10255
H     1.33470  -6.04570  -4.35215
H     2.30159  -6.30124  -2.90350
C     0.90699   1.50252   0.63811
O    -1.24199   1.00985  -0.40020
