54

Rh    0.00000   0.00000   0.00000
O     1.17302  -1.32771   2.41451
N    -0.85356   0.81405  -1.63537
N     1.27355  -0.93619  -1.23114
N     0.98958  -1.23320  -2.50088
N    -1.36144   1.01699   1.07294
N    -1.98775   2.12168   0.65596
C    -1.10624   0.02765  -2.73357
C    -0.26195  -1.03356  -3.11395
C    -0.63687  -1.90940  -4.13071
H    -0.00786  -2.75920  -4.34884
C    -1.80898  -1.73765  -4.83874
C    -2.62244  -0.65443  -4.50466
H    -3.54847  -0.50189  -5.03914
C    -2.28703   0.19327  -3.47975
H    -2.95681   0.99404  -3.20122
C    -2.21850  -2.69223  -5.91689
H    -3.13218  -3.21085  -5.62882
H    -1.44470  -3.43394  -6.09704
H    -2.41637  -2.15815  -6.84559
C     2.53404  -1.30405  -1.01021
H     3.00071  -1.16597  -0.05304
C     3.07923  -1.84087  -2.16990
H     4.06915  -2.22178  -2.30970
C     2.06544  -1.77525  -3.10041
H     2.06363  -2.05216  -4.13387
C    -1.92664   0.65298   2.22172
H    -1.61340  -0.22623   2.75240
C    -2.94335   1.54129   2.55187
H    -3.58355   1.50745   3.40803
C    -2.95640   2.46167   1.52838
H    -3.60716   3.29408   1.35846
C    -1.22390   2.13068  -1.67344
C    -1.68552   2.81585  -0.53043
C    -1.90059   4.19110  -0.56201
H    -2.19790   4.69636   0.34544
C    -1.73007   4.92398  -1.72051
C    -1.33636   4.24262  -2.87308
H    -1.20320   4.79217  -3.79355
C    -1.08402   2.89419  -2.84935
H    -0.74525   2.39259  -3.74498
C    -1.97253   6.40173  -1.75114
H    -1.18196   6.90815  -2.30180
H    -2.01655   6.81093  -0.74481
H    -2.91744   6.61842  -2.25069
C     0.74310  -0.79555   1.50003
C     1.33299   1.66090   0.13635
H     0.75556   2.52394   0.48706
H     2.08563   1.45089   0.90563
C     2.06648   2.07222  -1.13444
H     1.38088   2.31859  -1.94290
H     2.75377   1.30098  -1.47881
H     2.65788   2.96728  -0.92670
O    -0.99306  -1.31738  -0.02910
