26

Pd    0.00000   0.00000   0.00000
Cl    0.71441  -1.13132   1.78059
C    -0.50021   1.60952  -1.50513
C    -0.98561   0.40092  -1.91611
C    -2.35020  -0.13450  -1.52768
C    -2.06659  -0.71487  -0.15572
C    -2.03214   0.02828   0.98951
C    -2.48360   1.46403   1.12249
C    -1.43424   2.51411   0.71378
C    -1.29652   2.68910  -0.80982
C    -2.85984  -1.18545  -2.50682
H     0.44543   1.93946  -1.93138
H    -0.42308  -0.18151  -2.64793
H    -3.07709   0.68318  -1.45582
H    -1.99190  -1.80171  -0.09143
H    -1.92592  -0.50779   1.93070
H    -2.74098   1.63802   2.16879
H    -3.39035   1.62093   0.52925
H    -0.44999   2.25437   1.15374
H    -1.73716   3.47438   1.13652
H    -0.79772   3.64261  -0.99255
H    -2.29667   2.74972  -1.25096
H    -3.81472  -1.58438  -2.17137
H    -2.99592  -0.74899  -3.49383
H    -2.15075  -2.00782  -2.58728
O     1.58245   0.24887  -0.39549
