62

Pt    0.00000   0.00000   0.00000
P    -1.64294  -1.55014   0.37658
Cl    1.54577   1.66870  -0.28385
N    -2.68258  -1.09903   1.62676
H    -2.59626  -0.11674   1.93637
O    -3.71341  -3.08382   2.00543
C    -3.53670  -1.91611   2.29392
C    -4.24143  -1.24122   3.42395
N    -3.95267   0.03921   3.63272
C    -4.55858   0.66650   4.61920
H    -4.28647   1.70578   4.74543
C    -5.48572   0.05334   5.45419
H    -5.95647   0.60852   6.25045
C    -5.78652  -1.28201   5.23769
H    -6.50155  -1.79487   5.86460
C    -5.15356  -1.94836   4.20094
H    -5.34316  -2.98696   3.98020
C    -2.72496  -1.74433  -1.07305
C    -2.46063  -0.92019  -2.16270
H    -1.62837  -0.22056  -2.10186
C    -3.25411  -0.98329  -3.29293
H    -3.04824  -0.34176  -4.13701
C    -4.32050  -1.86753  -3.33467
H    -4.94321  -1.91925  -4.21572
C    -4.59716  -2.67778  -2.24457
H    -5.43660  -3.35682  -2.27727
C    -3.80610  -2.62014  -1.11054
H    -4.02436  -3.24047  -0.25424
C    -1.12913  -3.21313   0.90321
C    -1.29126  -4.36970   0.15308
H    -1.82819  -4.34038  -0.78453
C    -0.78622  -5.56992   0.62307
H    -0.92055  -6.47073   0.04217
C    -0.11634  -5.62114   1.83378
H     0.27332  -6.56109   2.19565
C     0.05049  -4.46700   2.58372
H     0.57074  -4.50573   3.52945
C    -0.44772  -3.26663   2.11651
H    -0.31929  -2.35565   2.68815
P     1.41841  -1.34586  -1.21077
C     2.71812  -0.57958  -2.25937
H     3.29057   0.08337  -1.60710
H     3.38003  -1.36644  -2.63267
C     2.11422   0.23150  -3.39847
H     2.89592   0.75363  -3.94562
H     1.43103   0.97370  -2.98892
H     1.57098  -0.40282  -4.09619
C     0.63067  -2.59067  -2.32641
H    -0.14853  -3.07860  -1.73569
H     0.12959  -2.03473  -3.12341
C     1.56297  -3.63826  -2.92033
H     0.99305  -4.31965  -3.54928
H     2.04106  -4.22213  -2.13804
H     2.33331  -3.18116  -3.53585
C     2.38975  -2.36867  -0.02613
H     1.75574  -3.20278   0.28851
H     3.27909  -2.76806  -0.52063
C     2.77762  -1.52202   1.18156
H     3.24926  -2.13181   1.94936
H     1.88528  -1.05126   1.60680
H     3.46447  -0.72961   0.89287
O    -0.90124   1.04943   0.89942
