46

Zn    0.00000   0.00000   0.00000
O     0.06371   0.48522   1.96300
O    -1.71925  -0.43737   1.12398
N     2.03247  -0.07235  -0.71396
N     2.68901   1.49579  -2.34440
N     2.88989   1.96165  -0.08636
N     0.07763  -1.92655  -0.78624
C     2.51930   1.11277  -1.05702
C     1.98547   0.83554  -3.41943
H     2.62814   0.10440  -3.91898
H     1.65306   1.57758  -4.14267
H     1.10099   0.32885  -3.03572
C     3.17243   2.84425  -2.56561
H     3.03381   3.10414  -3.61396
H     4.24395   2.88597  -2.33435
C     2.40120   3.78157  -1.64286
H     2.63772   4.82557  -1.84028
H     1.33270   3.61255  -1.79227
C     2.78183   3.40419  -0.22120
H     3.74815   3.84560   0.05577
H     2.02342   3.76250   0.48262
C     2.99886   1.49661   1.27828
H     2.05409   1.58817   1.81578
H     3.76184   2.09187   1.78166
H     3.29287   0.45020   1.27925
C     2.26956  -1.22917  -1.38788
C     3.47426  -1.53600  -2.00814
H     4.25908  -0.79362  -2.02333
C     3.69304  -2.78777  -2.58139
H     4.64665  -2.98550  -3.04939
C     2.72945  -3.76375  -2.55849
H     2.90409  -4.73071  -3.00467
C     1.48976  -3.50464  -1.94651
C     1.25543  -2.23287  -1.35958
C     0.43853  -4.44302  -1.88518
H     0.58448  -5.42419  -2.31454
C    -0.74433  -4.09902  -1.28731
H    -1.56642  -4.79461  -1.22669
C    -0.88541  -2.81425  -0.74532
H    -1.80000  -2.50099  -0.26365
C    -1.12530   0.09719   2.07801
C    -1.83637   0.29892   3.39758
H    -1.14684   0.11899   4.21731
H    -2.69501  -0.36211   3.46055
H    -2.17557   1.33142   3.44898
O    -0.38726   1.33517  -0.88874
