44

C     1.54612   0.65814   2.39062
C     0.32176  -0.59840   4.08895
H    -0.26589  -0.92391   3.23328
H    -0.30154   0.01105   4.75116
H     0.65391  -1.48651   4.62823
C     2.58333   0.17478   4.56634
H     3.03396  -0.80848   4.72955
H     2.20121   0.53482   5.52614
H     3.34310   0.86618   4.21001
C     2.92496   1.68456   0.67106
H     2.22563   2.51642   0.75339
H     2.73550   1.15349  -0.26997
C     4.36801   2.19893   0.68404
H     4.55828   2.81308  -0.19658
H     4.53087   2.80235   1.59213
C     5.12523   0.25732   1.71335
H     5.33545   0.77373   2.66498
H     5.85381  -0.54192   1.57122
C     3.70549  -0.30966   1.73434
H     3.52216  -0.85864   0.80170
H     3.56624  -0.99860   2.56251
C    -0.66443   1.52051   2.34792
C    -0.65404   2.31045   3.48678
H     0.29115   2.53960   3.95717
C    -1.83255   2.83896   4.01606
H    -1.77603   3.45166   4.90376
C    -3.04509   2.59536   3.42720
H    -3.95661   3.00259   3.83689
C    -3.11093   1.80667   2.26342
C    -1.91728   1.26438   1.71542
C    -4.31998   1.51830   1.59707
H    -5.24387   1.92143   1.98669
C    -4.30456   0.73726   0.47308
H    -5.21096   0.49743  -0.05960
C    -3.07788   0.24457   0.00798
H    -3.02981  -0.37021  -0.88016
N     0.47823   1.06980   1.73659
N     1.48628   0.12121   3.63116
N     2.76199   0.79725   1.81088
N    -1.93969   0.49726   0.60676
O     5.30199   1.14710   0.63826
Zn    0.00000   0.00000   0.00000
Cl    0.44702   0.86491  -1.95638
O     0.53204  -1.45821   0.55951
