51

Zn    0.00000   0.00000   0.00000
Cl    1.84132   1.26116   0.00365
N     0.14093  -1.35587  -1.56746
N    -1.14700   1.04890  -1.39956
N    -1.94725   2.85102  -0.21153
N    -0.65632   3.23652  -2.11311
C    -0.45119  -1.59587  -3.89423
C    -0.45061  -0.86582  -2.67454
C    -1.08549   0.41192  -2.60875
C     0.73242  -2.52501  -1.59991
H     1.18269  -2.86407  -0.67715
C    -1.72082   0.88152  -3.74976
H    -2.24916   1.82163  -3.70174
C    -1.08688  -1.05778  -5.02787
H    -1.07665  -1.61719  -5.95056
C    -1.71590   0.15625  -4.94023
H    -2.22134   0.56675  -5.80221
C     0.19643  -2.84865  -3.90039
H     0.21096  -3.42635  -4.81360
C     0.78854  -3.31267  -2.75710
H     1.29074  -4.26648  -2.72839
C    -1.23579   2.36263  -1.25433
C    -4.08374   1.71618  -0.65326
H    -4.46952   2.63593  -1.09003
H    -4.90154   1.19319  -0.16556
H    -3.69965   1.08300  -1.44788
C    -1.39889   3.88102   0.65949
H    -2.20962   4.56166   0.94289
H    -0.64349   4.44233   0.11257
C    -2.99829   2.02260   0.37232
H    -3.43243   2.59888   1.19064
H    -2.59856   1.08969   0.78034
C    -1.19392   4.57064  -2.31388
H    -0.50551   5.33267  -1.93355
H    -2.12749   4.63836  -1.75314
C     0.54478   2.87558  -2.84720
H     0.32916   2.81695  -3.92016
H     0.85998   1.88968  -2.50705
C    -1.48670   4.85743  -3.78679
H    -0.57466   4.90800  -4.37388
H    -1.99552   5.81479  -3.86520
H    -2.13158   4.09123  -4.20948
C     1.69577   3.83811  -2.57512
H     1.48683   4.84491  -2.92709
H     2.58174   3.47329  -3.08686
H     1.90920   3.85704  -1.50973
C    -0.74263   3.29154   1.90603
H    -1.44974   2.72510   2.50490
H    -0.33662   4.09613   2.51386
H     0.07292   2.63061   1.62021
O    -0.73431  -0.54731   1.37249
