48

Zn    0.00000   0.00000   0.00000
Cl   -1.11110  -1.94758   0.03671
N     1.06425  -0.40372  -1.70399
N     3.22325  -0.85919  -1.05279
N     2.18816  -2.28095  -2.57727
N    -1.03772   1.25147  -1.35623
C     2.10716  -1.18119  -1.76783
C     3.84023  -1.89732  -0.23832
H     4.80942  -1.52540   0.09720
H     4.01184  -2.78650  -0.84718
C     2.97433  -2.26464   0.96564
H     3.47018  -3.02513   1.56388
H     2.01054  -2.65087   0.63801
H     2.79275  -1.39549   1.59336
C     3.43831   0.50702  -0.60129
H     3.33935   0.58140   0.48402
H     2.66990   1.13716  -1.04784
C     4.81452   1.00342  -1.04026
H     4.93615   2.03964  -0.73820
H     4.91366   0.94172  -2.12204
H     5.61303   0.42129  -0.58682
C     3.40203  -2.56977  -3.31389
H     3.82028  -3.54041  -3.02653
H     4.13026  -1.79531  -3.06651
C     3.15263  -2.55767  -4.82248
H     4.09317  -2.69857  -5.34857
H     2.72351  -1.60600  -5.12742
H     2.47449  -3.35506  -5.11348
C     1.09897  -3.24373  -2.61430
H     0.62292  -3.25464  -3.60241
H     0.36246  -2.93743  -1.86959
C     1.55299  -4.65709  -2.25354
H     0.67324  -5.28221  -2.12946
H     2.10065  -4.65264  -1.31432
H     2.17677  -5.09591  -3.02866
C     0.05042  -0.40230  -2.73176
H    -0.63717  -1.25261  -2.62164
H     0.50282  -0.45127  -3.72882
C    -0.80308   0.82494  -2.59266
C    -1.36769   1.45882  -3.69454
H    -1.16472   1.09210  -4.68892
C    -2.18549   2.55620  -3.49400
H    -2.63391   3.06553  -4.33394
C    -2.41516   2.99317  -2.19719
H    -3.04307   3.84620  -1.99731
C    -1.81651   2.30603  -1.15698
H    -1.95630   2.60320  -0.12712
O     0.63564   0.78016   1.30760
