44

Cu    0.00000   0.00000   0.00000
N     1.59395  -0.41742  -1.16362
C     1.56190  -1.32430  -2.13544
C     2.66385  -1.66056  -2.90581
C     2.57611  -2.68627  -3.99150
C     3.86169  -1.00377  -2.63012
C     3.89993  -0.06580  -1.61254
C     2.74192   0.19874  -0.90254
H     0.61006  -1.81408  -2.29985
H     1.57190  -3.09759  -4.06004
H     3.27344  -3.50025  -3.79796
H     2.84047  -2.24406  -4.95152
H     4.74713  -1.23258  -3.20566
H     4.81268   0.45462  -1.36980
H     2.72937   0.91637  -0.09416
N    -1.22698   1.22258  -1.03397
N    -0.98697  -1.72325   0.35508
C    -1.42929   1.10524  -2.34286
C    -1.80752   2.22655  -0.38536
C    -1.81711  -2.27522  -0.52477
C    -0.84911  -2.29294   1.54761
C    -2.22576   1.97119  -3.07537
H    -0.92100   0.28378  -2.83251
C    -2.62028   3.14646  -1.02432
H    -1.60408   2.29603   0.67407
C    -2.54640  -3.42631  -0.27195
H    -1.91173  -1.76613  -1.47597
C    -1.53292  -3.44336   1.89971
H    -0.17794  -1.80356   2.23946
C    -2.42525   1.79474  -4.54764
C    -2.83690   3.01659  -2.38555
H    -3.07289   3.94836  -0.46310
C    -3.46581  -4.01120  -1.29719
C    -2.38961  -4.02135   0.97846
H    -1.39496  -3.87514   2.87818
H    -1.87010   0.93576  -4.91683
H    -2.08970   2.68231  -5.08234
H    -3.48198   1.65220  -4.77148
H    -3.46776   3.71613  -2.91493
H    -3.46859  -3.41361  -2.20560
H    -4.48212  -4.05874  -0.90841
H    -3.15784  -5.02629  -1.54587
H    -2.93710  -4.92105   1.22011
O     0.47497   0.70541   1.41397
