42

Ni    0.00000   0.00000   0.00000
N     0.91874   1.72715   0.40645
N    -0.86957   0.24741   1.60971
N    -1.05378  -1.66986  -0.15169
C     0.72128   2.68497  -0.69602
H    -0.34664   2.86342  -0.83179
H     1.13487   2.27540  -1.61731
H     1.21378   3.63733  -0.47839
C     2.35894   1.51799   0.62553
H     2.86203   2.46629   0.83956
H     2.80342   1.07481  -0.26602
H     2.50284   0.84423   1.47156
C     0.29851   2.26874   1.61996
C     0.63414   3.49841   2.14714
H     1.42968   4.08943   1.71747
C    -0.06866   3.99727   3.23295
H     0.19404   4.95692   3.64983
C    -1.13500   3.27491   3.74290
H    -1.72538   3.68968   4.54697
C    -1.46584   2.03424   3.23771
H    -2.33409   1.52330   3.61780
C    -0.71008   1.47132   2.19754
C    -1.60090  -0.81761   2.05531
C    -2.12441  -1.03596   3.33921
H    -1.90479  -0.35276   4.14197
C    -2.88085  -2.16069   3.59818
H    -3.28107  -2.30763   4.59095
C    -3.13128  -3.10295   2.61372
H    -3.74396  -3.96586   2.82320
C    -2.55103  -2.95122   1.36395
H    -2.70235  -3.71102   0.61023
C    -1.77345  -1.84136   1.10104
C    -1.91401  -1.78369  -1.37201
H    -1.88070  -0.88911  -1.99628
H    -2.95005  -2.01020  -1.11505
C    -1.08993  -2.96696  -1.88255
H    -1.64426  -3.88854  -2.04334
H    -0.49562  -2.73529  -2.76166
C    -0.29752  -2.89265  -0.57603
H    -0.44965  -3.72333   0.11399
H     0.77084  -2.71014  -0.69332
O     0.78466  -0.22655  -1.43370
