55

Au    0.00000   0.00000   0.00000
S     0.09918   1.03033   2.09620
S    -0.05341  -1.16587  -2.00074
N     2.68419   1.46436   1.39155
N     2.00242  -0.17399  -0.16970
N     2.47850  -1.02231  -1.10630
N     2.16684  -2.35201  -2.91702
N     1.70889   3.04663   2.66831
C     1.61184   1.89133   2.00156
C     2.89670   0.46040   0.56707
C     1.68323  -1.51249  -1.98934
C     4.33265   0.12906   0.40526
C     4.77396  -1.18839   0.45277
H     4.06374  -1.98561   0.60798
C     6.12053  -1.47064   0.31567
H     6.45973  -2.49522   0.35587
C     7.03319  -0.44535   0.12836
H     8.08307  -0.67049   0.01328
C     6.59738   0.86867   0.09490
H     7.30670   1.67110  -0.04420
C     5.25285   1.15799   0.23985
H     4.90310   2.17812   0.21402
C     1.37574  -2.78863  -4.04095
H     0.34817  -2.94038  -3.70126
H     1.77872  -3.74947  -4.37346
C     1.38308  -1.78760  -5.19863
H     0.85624  -2.24113  -6.04002
H     0.82572  -0.89928  -4.89622
C     2.78900  -1.37239  -5.63438
H     2.69236  -0.79359  -6.55534
H     3.38700  -2.25574  -5.86694
C     3.50643  -0.51294  -4.58708
H     2.76258   0.08455  -4.05603
H     4.17899   0.18608  -5.08853
C     4.33346  -1.30328  -3.57007
H     4.59793  -0.63572  -2.74884
H     5.25966  -1.64740  -4.03371
C     3.59964  -2.52870  -3.00409
H     3.77388  -3.39973  -3.63779
H     3.98037  -2.74160  -2.00277
C     2.98384   3.74307   2.67885
H     2.79976   4.76608   3.01128
H     3.36686   3.76853   1.65571
C     4.01700   3.07510   3.58188
H     4.20545   2.06290   3.23699
H     3.66918   3.03883   4.61026
H     4.94699   3.63623   3.54757
C     0.61930   3.56994   3.46275
H    -0.32028   3.31881   2.96401
H     0.71713   4.65777   3.49396
C     0.59566   3.00220   4.87920
H     1.48852   3.28667   5.42983
H     0.53227   1.91832   4.83983
H    -0.27466   3.38081   5.40752
O    -1.64481   0.11224   0.06705
