54

Au    0.00000   0.00000   0.00000
S    -2.19448  -0.03937  -0.79407
N    -0.63184  -3.12815   1.96150
N    -1.81847  -3.60193   0.12760
N    -2.13727  -2.34042   0.56385
N    -4.03140  -1.90976  -0.71969
N    -1.44416  -0.97053   2.45519
C    -1.38579  -2.09015   1.70742
C    -0.90428  -4.01772   0.97042
C    -2.84654  -1.50519  -0.27425
C    -0.25116  -5.30814   0.88548
C    -0.64414  -6.24552  -0.06750
H    -1.44826  -6.00023  -0.74399
C    -0.00369  -7.46743  -0.13555
H    -0.30738  -8.19417  -0.87515
C     1.02901  -7.76242   0.74121
H     1.52843  -8.71855   0.68336
C     1.42265  -6.83112   1.68917
H     2.22987  -7.06123   2.36872
C     0.78725  -5.60668   1.76485
H     1.08227  -4.86444   2.48978
C    -4.67744  -3.09988  -0.20467
H    -5.74175  -2.88435  -0.08818
H    -4.26340  -3.31415   0.78268
C    -4.47283  -4.32026  -1.10695
H    -3.42919  -4.33460  -1.42158
H    -4.64892  -5.21540  -0.50873
C    -5.39905  -4.34151  -2.31699
H    -6.43559  -4.43209  -1.98168
H    -5.16899  -5.22891  -2.90917
C    -5.26890  -3.10632  -3.20459
H    -4.22754  -2.97530  -3.50315
H    -5.85246  -3.27628  -4.11116
C    -5.77386  -1.82979  -2.52866
H    -6.64703  -2.05831  -1.91543
H    -6.10000  -1.12150  -3.29267
C    -4.70714  -1.10269  -1.71964
H    -3.93873  -0.72723  -2.40285
H    -5.14702  -0.22817  -1.22420
C    -2.68372  -0.23667   2.64035
H    -3.06617  -0.44128   3.64936
H    -3.42401  -0.60599   1.92500
C    -2.52067   1.26908   2.46564
H    -1.79470   1.66659   3.16830
H    -3.47593   1.75692   2.64240
H    -2.18702   1.50781   1.45971
C    -0.46322  -0.89670   3.53241
H    -0.41024   0.14421   3.85213
H     0.50119  -1.17218   3.10260
C    -0.78368  -1.80532   4.71377
H    -1.73857  -1.54626   5.16790
H    -0.00681  -1.70168   5.46532
H    -0.81434  -2.83959   4.38296
O     1.49996  -0.02427   0.68704
