53

Zr    0.00000   0.00000   0.00000
Cl    1.88743   1.34897  -0.45186
O     1.10547  -1.06002   1.22957
C     1.81393  -0.64204   2.21251
C     1.58649   0.54217   2.89564
C     0.57976   1.48567   2.60069
C     0.60149   2.76997   3.38772
C     2.96924  -1.52093   2.62114
N    -0.36129   1.23740   1.72309
C    -1.24956   2.22200   1.25851
C    -0.76979   3.37089   0.61812
C    -1.65682   4.26562   0.04949
C    -3.02295   4.03811   0.11192
C    -3.50276   2.90150   0.74202
C    -2.62724   1.99391   1.31083
O    -1.11162   1.06465  -1.22223
C    -2.11949   0.67773  -1.91165
C    -2.90844  -0.41951  -1.60287
C    -2.71162  -1.30053  -0.51920
C    -3.60982  -2.50840  -0.45639
C    -2.43790   1.48331  -3.14688
N    -1.82892  -1.05392   0.41783
C    -1.46481  -2.00054   1.39024
C    -0.92216  -3.23567   1.01587
C    -0.44771  -4.10276   1.98222
C    -0.50914  -3.76204   3.32466
C    -1.04240  -2.53983   3.70033
C    -1.51591  -1.65907   2.74439
H     2.26759   0.79474   3.69376
H     0.86868   2.57323   4.42315
H    -0.36329   3.27121   3.34804
H     1.35652   3.43243   2.96657
H     2.65241  -2.56193   2.59510
H     3.34665  -1.26666   3.60605
H     3.76715  -1.39831   1.88860
H     0.29967   3.51974   0.53462
H    -1.27792   5.14287  -0.45356
H    -3.71042   4.73784  -0.33867
H    -4.56596   2.71621   0.78610
H    -3.00024   1.09981   1.79430
H    -3.71673  -0.65443  -2.27848
H    -3.61332  -2.94469   0.54011
H    -4.62416  -2.23782  -0.73982
H    -3.25196  -3.25517  -1.16383
H    -1.86374   1.07705  -3.97961
H    -2.12558   2.51398  -2.99269
H    -3.49388   1.44145  -3.39474
H    -0.83780  -3.47681  -0.03653
H    -0.01924  -5.04810   1.68401
H    -0.13249  -4.44128   4.07445
H    -1.08463  -2.26687   4.74453
H    -1.92295  -0.69899   3.03575
O     0.25688  -1.07256  -1.22725
