30

Pd    0.00000   0.00000   0.00000
Cl    0.94616   1.50066   1.30037
O    -0.80221  -1.38060  -1.35240
C    -0.23677  -1.37360  -2.46015
N    -0.63795  -2.17681  -3.45417
H    -0.15883  -2.13731  -4.33839
N     1.18297   0.31613  -1.59884
C     0.90351  -0.45374  -2.67972
C     2.69189   0.55507  -3.91797
H     3.28012   0.64803  -4.81746
C     2.96456   1.34083  -2.80227
H     3.76772   2.05926  -2.81360
C     2.19044   1.18991  -1.66852
H     2.36031   1.77552  -0.77104
C     1.64934  -0.35053  -3.85215
H     1.42509  -0.96922  -4.70759
C    -1.85911  -3.81858  -4.71822
H    -2.05302  -3.09522  -5.50803
H    -2.67665  -4.53325  -4.70593
H    -0.94129  -4.35700  -4.94691
C    -1.75741  -3.12537  -3.36099
C    -1.46409  -4.14611  -2.25979
H    -0.52789  -4.66336  -2.45885
H    -2.26471  -4.87823  -2.21434
H    -1.39426  -3.65086  -1.29532
C    -3.04574  -2.35927  -3.05423
H    -2.97026  -1.86432  -2.08990
H    -3.88450  -3.04824  -3.02301
H    -3.23617  -1.61068  -3.82048
O    -1.05348  -0.38921   1.20880
