31

C    -1.90779  -2.43735   0.36561
C    -3.13586  -3.00888  -0.01524
H    -3.24786  -4.08046   0.03994
C    -4.16758  -2.21751  -0.45026
H    -5.10955  -2.64618  -0.75833
C    -4.00264  -0.82010  -0.45924
C    -2.73830  -0.32279  -0.08377
C    -5.03196   0.09810  -0.80551
H    -5.98200  -0.30110  -1.12797
C    -1.14749   2.80050   0.73167
C    -2.15351   3.74326   0.45107
H    -1.95783   4.78499   0.65201
C    -3.35709   3.34350  -0.07018
H    -4.13100   4.05955  -0.30315
C    -3.59595   1.97104  -0.26867
C    -2.53300   1.08947   0.01364
C    -4.83661   1.43780  -0.71464
H    -5.62745   2.12965  -0.96326
C    -0.80686  -3.27747   0.90651
H    -0.20697  -3.66927   0.08379
H    -1.20151  -4.10964   1.48460
H    -0.14227  -2.66405   1.51975
C     0.13180   3.21208   1.36827
H     0.59181   2.35171   1.86059
H    -0.03205   4.01756   2.08045
H     0.83062   3.55253   0.60310
N    -1.71158  -1.13017   0.27517
N    -1.32755   1.51634   0.46012
Cl    1.65059   1.34638  -0.62897
Pd    0.00000   0.00000   0.00000
O     0.90814  -1.23089  -0.61861
