50

Br    1.52444   0.59953   1.46802
Ni    0.00000   0.00000   0.00000
C     1.06235  -2.76606   0.81322
H     1.62364  -2.33268   1.64503
N    -0.11507  -1.95747   0.52372
C    -2.49883  -2.39469   0.08145
O    -0.90723  -4.02561   0.76504
C     0.48283  -4.17848   1.07240
H     0.55384  -4.51114   2.11178
C    -1.12040  -2.73636   0.45663
C    -2.79655  -1.02191  -0.34812
O    -4.08142  -0.77569  -0.64979
N    -1.98333  -0.04910  -0.46656
C    -4.18713   0.60306  -1.02183
H    -4.52295   0.63655  -2.06216
C    -2.87527   2.03379   0.41466
C     1.89468  -2.92616  -0.43467
C    -4.51933   2.85884   1.95958
H    -5.54581   2.93938   2.28582
C    -4.19778   2.12667   0.83321
C     2.51404  -1.93356  -1.16865
H     2.50130  -0.90182  -0.84275
C    -3.50035   3.48028   2.66720
H    -3.73907   4.04998   3.55284
C    -2.75349   1.14297  -0.79673
H    -2.30895   1.65476  -1.65417
C     3.19871  -3.60836  -2.75633
H     3.71062  -3.86945  -3.67048
C    -3.31961  -3.50274  -0.56837
H    -4.00953  -3.19519  -1.33913
H    -2.80551  -4.43184  -0.75961
C     1.16845  -5.14512   0.09492
H     1.85383  -5.80623   0.62825
H     0.42704  -5.76458  -0.41296
C     3.16837  -2.28778  -2.33905
H     3.65210  -1.52367  -2.92742
C    -1.85698   2.64625   1.11850
H    -0.82697   2.57107   0.79658
C     1.91386  -4.25147  -0.85410
C     2.57424  -4.60189  -2.01571
H     2.59647  -5.63066  -2.34388
C    -5.12293   1.36913  -0.07503
H    -5.76467   0.67548   0.47120
H    -5.76293   2.05047  -0.63825
C    -3.60760  -3.12535   0.83145
H    -3.29147  -3.78869   1.62189
H    -4.49983  -2.55658   1.04276
C    -2.18256   3.37312   2.25377
H    -1.39848   3.85407   2.81755
O     0.46110   1.11670  -1.12377
