27

Zn    0.00000   0.00000   0.00000
Cl    0.35994  -1.99649  -0.84240
N     1.40283   0.12114   1.66763
H     1.86846  -0.77684   1.77776
H     2.12815   0.82170   1.53460
C     0.64009   0.44892   2.88565
C     0.29932   1.93954   2.79281
H    -0.13658   2.18184   1.82727
H    -0.37557   2.24953   3.58356
H     1.21128   2.52333   2.89677
C     1.51249   0.21963   4.12568
H     1.00327   0.54943   5.02564
H     2.43030   0.79762   4.03453
H     1.78466  -0.82536   4.24277
C    -0.64010  -0.44892   2.88565
N    -1.40283  -0.12115   1.66763
H    -1.86847   0.77684   1.77776
H    -2.12815  -0.82171   1.53460
C    -0.29934  -1.93954   2.79280
H     0.13656  -2.18184   1.82726
H     0.37554  -2.24952   3.58355
H    -1.21130  -2.52334   2.89676
C    -1.51251  -0.21963   4.12567
H    -1.00330  -0.54943   5.02564
H    -2.43032  -0.79762   4.03452
H    -1.78468   0.82537   4.24277
O    -0.27037   1.49966  -0.63278
