55

V     0.00000   0.00000   0.00000
O    -0.73616  -1.31567   0.20788
O    -0.32662   0.19182  -1.63030
O     1.03216   2.03514  -0.57800
O    -1.45365   1.76497   0.21647
O     0.23488   0.55599   1.59578
N    -0.06217   1.27835  -2.36077
N    -0.09906   1.80088   1.97730
C     0.72199   2.19789  -1.75937
C     1.22555   3.34922  -2.54514
C     1.77520   3.17966  -3.81307
H     1.81721   2.19674  -4.25751
C     2.28651   4.27158  -4.48959
H     2.71651   4.13849  -5.47060
C     2.25255   5.53128  -3.91224
H     2.64727   6.38104  -4.44852
C     1.72548   5.69855  -2.64252
H     1.71108   6.67643  -2.18508
C     1.22404   4.60903  -1.95409
H     0.82238   4.72376  -0.95767
C    -0.66740   1.33471  -3.63482
C    -0.76869   0.15212  -4.36017
H    -0.37518  -0.76037  -3.93380
C    -1.37666   0.16307  -5.60175
H    -1.45320  -0.75331  -6.16646
C    -1.88487   1.34388  -6.11794
H    -2.35678   1.35096  -7.08853
C    -1.80306   2.51395  -5.38042
H    -2.21925   3.43012  -5.77129
C    -1.20593   2.51594  -4.13298
H    -1.16634   3.42307  -3.54988
C    -1.06773   2.35385   1.23828
C    -1.70503   3.61929   1.67188
C    -2.00367   4.57110   0.70123
H    -1.73816   4.37369  -0.32722
C    -2.62886   5.75229   1.05644
H    -2.84844   6.49240   0.30160
C    -2.98004   5.97877   2.37680
H    -3.47119   6.89924   2.65426
C    -2.71431   5.01812   3.34009
H    -3.00690   5.18617   4.36539
C    -2.07893   3.83969   2.99485
H    -1.88677   3.08734   3.74478
C     0.60969   2.33964   3.06731
C     0.99633   1.48183   4.09212
H     0.72980   0.43617   4.03056
C     1.71962   1.97713   5.16102
H     2.01670   1.31243   5.95766
C     2.06316   3.31818   5.20842
H     2.62710   3.70290   6.04435
C     1.69918   4.16281   4.17185
H     1.98783   5.20283   4.19494
C     0.98270   3.67965   3.09270
H     0.72453   4.33189   2.27287
O     1.53044  -0.59897  -0.14661
