63

Pd    0.00000   0.00000   0.00000
Cl   -0.42199  -1.43526   1.65850
P    -1.05653   1.66126   1.05275
O     0.55278   2.91077  -2.95579
N     0.16422   1.21030  -1.58771
C     0.35131   2.47314  -1.70466
C     0.04856   0.62058  -2.91358
H     0.65926  -0.28689  -2.95933
C     0.64151   1.74314  -3.81182
C    -1.42789   0.27861  -3.18026
H    -2.02620   1.17675  -2.99014
H    -1.53254   0.01195  -4.23338
C    -1.99404  -0.88002  -2.34067
H    -1.75939  -0.72193  -1.25920
C    -1.39943  -2.22217  -2.76369
H    -1.51701  -2.37725  -3.83502
H    -1.90380  -3.03058  -2.23989
H    -0.34307  -2.27426  -2.50817
C    -3.51590  -0.89898  -2.48289
H    -3.95164   0.03929  -2.14265
H    -3.93912  -1.70399  -1.88781
H    -3.79783  -1.05639  -3.52276
C     2.12187   1.46561  -4.07745
H     2.59612   2.34214  -4.51288
H     2.22227   0.62840  -4.76192
H     2.62840   1.21617  -3.14700
C    -0.09376   2.05144  -5.10738
H    -1.12012   2.34973  -4.91395
H    -0.08451   1.18080  -5.75609
H     0.41066   2.87085  -5.61361
C    -0.33526   3.27421   0.57815
C     0.30594   3.48399  -0.65375
C     0.86597   4.73339  -0.93028
H     1.35391   4.88209  -1.88107
C     0.80240   5.75792  -0.00731
H     1.24833   6.71446  -0.23341
C     0.16389   5.55507   1.20674
H     0.10609   6.35319   1.93150
C    -0.39775   4.32363   1.49074
H    -0.89308   4.16287   2.43860
C    -2.85139   1.87512   0.94463
C    -3.59142   0.70947   1.14540
H    -3.06496  -0.21081   1.37654
C    -4.96864   0.74244   1.04513
H    -5.54398  -0.15696   1.20514
C    -5.60965   1.93146   0.72817
H    -6.68590   1.95767   0.64336
C    -4.87355   3.08481   0.51100
H    -5.37626   4.00654   0.25645
C    -3.49292   3.06302   0.61562
H    -2.91738   3.96187   0.44171
C    -0.65093   1.61632   2.81947
C    -1.54898   1.86015   3.84898
H    -2.57784   2.10733   3.62399
C    -1.11859   1.76662   5.16226
H    -1.81517   1.94682   5.96798
C     0.19542   1.43383   5.44342
H     0.52110   1.35351   6.46991
C     1.09253   1.18714   4.41374
H     2.11203   0.91232   4.63902
C     0.67124   1.27369   3.10227
H     1.35185   1.04740   2.27553
O     1.12683  -1.02089  -0.64073
