54

Ni    0.00000   0.00000   0.00000
Br    1.63318   0.17472  -1.46191
N    -1.84437   1.34883  -0.74134
O    -3.85535   2.19003  -0.26864
P    -1.21470  -1.14997  -1.25391
C    -1.71919  -0.66525  -2.94102
C    -2.89884  -1.22161  -3.43504
H    -3.47247  -1.90566  -2.82551
C    -3.33589  -0.90875  -4.70831
H    -4.25062  -1.34627  -5.08058
C    -2.60553  -0.03939  -5.50302
H    -2.95292   0.20740  -6.49520
C    -1.42821   0.50471  -5.02087
H    -0.84724   1.17609  -5.63516
C    -0.98414   0.19233  -3.74684
H    -0.06018   0.61428  -3.38736
C    -0.55499  -2.83576  -1.44702
C    -0.40288  -3.43242  -2.69377
H    -0.72072  -2.91259  -3.58585
C     0.16392  -4.69142  -2.78716
H     0.28173  -5.15159  -3.75702
C     0.58881  -5.35407  -1.64754
H     1.03824  -6.33249  -1.72872
C     0.45285  -4.75525  -0.40489
H     0.79519  -5.26290   0.48437
C    -0.10830  -3.49670  -0.30367
H    -0.19989  -3.01993   0.66449
C    -2.85570  -1.34714  -0.49000
C    -3.36880  -2.59576  -0.17523
H    -2.77569  -3.47927  -0.36801
C    -4.63077  -2.73505   0.39283
C    -5.38764  -1.59318   0.63307
H    -6.36947  -1.68742   1.07249
C    -4.89051  -0.34099   0.33319
H    -5.46807   0.54668   0.53927
C    -3.62152  -0.20206  -0.22118
C    -3.06527   1.12022  -0.43521
C    -3.05000   3.34359  -0.49251
H    -3.09670   3.97892   0.39512
H    -3.45511   3.88764  -1.35064
C    -1.62494   2.79093  -0.76092
C    -1.06856   3.22818  -2.11294
H    -0.08378   2.79313  -2.26189
H    -0.98141   4.31146  -2.14124
H    -1.72127   2.89838  -2.91879
C    -0.64287   3.13216   0.36238
H    -1.07994   2.91117   1.33563
H    -0.36174   4.18150   0.32501
H     0.26467   2.52948   0.24021
C    -5.14298  -4.09193   0.75602
H    -6.22448  -4.08544   0.86447
H    -4.70667  -4.40210   1.70561
H    -4.86246  -4.82748   0.00505
O    -0.62199  -0.39023   1.47762
