47

Zn    0.00000   0.00000   0.00000
Cl   -0.32956  -2.04377  -0.84457
N     1.47146   0.79487  -1.33439
N     2.20805   0.00226  -4.83064
H     2.77527   0.46970  -5.52711
N     0.03426  -3.05802  -6.67520
N    -1.74174   0.82515  -1.02271
N    -2.96889   0.47094  -4.44322
H    -3.78939   0.02765  -4.83191
N     0.07126   1.23245  -7.19956
C     1.88794   2.05387  -1.27208
H     1.74037   2.56217  -0.33171
C     2.49875   2.66872  -2.35500
H     2.86571   3.67889  -2.26757
C     2.61115   1.97945  -3.54491
H     3.06871   2.44218  -4.40805
C     2.12525   0.66598  -3.63367
C     1.61360   0.10571  -2.45828
H     1.32606  -0.93185  -2.39879
C     1.46544  -1.04231  -5.35884
C     1.80804  -1.46779  -6.64763
H     2.63309  -1.00812  -7.17056
C     1.06951  -2.46576  -7.24933
H     1.31422  -2.80989  -8.24499
C    -0.28578  -2.66172  -5.45737
H    -1.13250  -3.16224  -5.00749
C     0.37797  -1.67019  -4.75265
H     0.02042  -1.41737  -3.77153
C    -2.88334   0.96545  -0.35765
H    -2.79794   1.10415   0.70995
C    -4.11424   0.91861  -0.99474
H    -5.02197   1.00815  -0.42032
C    -4.16210   0.74169  -2.36338
H    -5.10711   0.67407  -2.88265
C    -2.96212   0.64826  -3.07610
C    -1.77854   0.67884  -2.33700
H    -0.82775   0.53995  -2.82670
C    -1.94406   0.72935  -5.33077
C    -1.89834   0.05231  -6.55282
H    -2.64160  -0.69089  -6.79630
C    -0.87439   0.33619  -7.43533
H    -0.80108  -0.18453  -8.37999
C     0.00090   1.90406  -6.06231
H     0.76282   2.65925  -5.91679
C    -0.96901   1.70308  -5.09876
H    -0.98489   2.30910  -4.20702
O    -0.04481   0.68516   1.50035
