46

Hg    0.00000   0.00000   0.00000
Cl    0.36376  -2.20608  -0.52581
N    -1.21304  -0.30308   2.21175
C    -2.57904  -0.68954   1.83314
H    -3.16939  -0.89634   2.74110
H    -2.52415  -1.61074   1.24633
C    -3.27019   0.40514   1.02912
H    -2.72815   0.56727   0.08692
H    -4.28142   0.08119   0.77808
C    -3.30215   1.70398   1.82546
H    -3.94724   1.58085   2.69964
H    -3.71154   2.50947   1.21563
C    -1.88727   2.05363   2.27400
H    -1.27430   2.26153   1.39427
H    -1.89938   2.94724   2.90029
C    -1.28591   0.89250   3.06453
H    -1.97216   0.67356   3.90526
C     0.06814   1.23657   3.70416
H    -0.09358   2.12488   4.32554
C     0.72486  -1.10535   3.61979
H     1.01087  -2.00020   4.18303
N     1.61622   0.44119   1.89581
C     2.77204   0.79077   1.05099
H     2.55668   1.74490   0.56270
H     2.86151   0.01802   0.27492
C     4.10886   0.86458   1.78594
H     4.89158   1.09282   1.06150
H     4.10041   1.66583   2.52710
C     4.37525  -0.47214   2.46476
H     4.44789  -1.25715   1.70894
H     5.31685  -0.44539   3.01645
C     3.21972  -0.77446   3.41070
H     3.20975  -0.02178   4.19963
H     3.36364  -1.74854   3.88129
C     1.87993  -0.79280   2.65588
H     1.93358  -1.60161   1.91461
C    -0.59857  -1.43356   2.92428
H    -0.44582  -2.23894   2.20153
H    -1.29626  -1.79442   3.69754
C     1.21703   1.56757   2.74633
H     0.93075   2.39053   2.08683
H     2.05865   1.91219   3.36280
C     0.48755   0.05864   4.57492
H     1.38260   0.29563   5.14876
H    -0.30102  -0.19413   5.28686
O     0.06152   1.44983  -0.78530
