42

Re    0.00000   0.00000   0.00000
O    -0.40731   0.70781   2.98577
O    -2.49942  -1.78761  -0.30537
O    -1.54872   2.59472  -0.63236
O    -0.49238  -3.21454   1.54426
N     1.51858  -1.57526   0.14114
N     0.56671  -0.36011  -2.02435
C    -0.26320   0.37576   1.89853
C    -1.55820  -1.14204  -0.15558
C    -1.02863   1.60627  -0.37565
C     0.00703   0.21538  -3.08569
H    -0.86974   0.82139  -2.89705
C     0.49134   0.06912  -4.37132
H     0.00442   0.56928  -5.19259
C     1.60703  -0.73027  -4.57175
H     2.01484  -0.87750  -5.56006
C     2.18844  -1.33729  -3.47635
H     3.04755  -1.97294  -3.61239
C     1.65695  -1.12435  -2.20380
C     2.23662  -1.71366  -0.98883
C     3.47593  -2.34806  -1.00079
H     4.04968  -2.41933  -1.90938
C     3.99135  -2.85308   0.17864
H     4.95949  -3.33018   0.19517
C     3.24038  -2.72689   1.32957
H     3.59130  -3.11019   2.27468
C     2.00272  -2.08615   1.27382
C     1.23583  -1.96902   2.52851
C     1.80981  -1.34039   3.62517
H     2.78842  -0.89572   3.52023
C     1.12258  -1.24448   4.82083
H     1.56650  -0.73413   5.66081
C    -0.13763  -1.80402   4.92700
H    -0.68395  -1.73233   5.85518
C    -0.71232  -2.46531   3.85511
H    -1.69235  -2.89911   3.96954
C    -0.03712  -2.55492   2.64382
C    -1.70595  -3.92421   1.64912
H    -1.64473  -4.70045   2.41884
H    -1.85953  -4.38868   0.67684
H    -2.54567  -3.25790   1.86223
O     1.39340   0.88364   0.01135
