39

Cd    0.00000   0.00000   0.00000
Cl   -0.37357  -1.43086  -1.97855
N     2.26766  -0.45909  -0.18349
N     4.12686  -1.08474  -1.15070
H     4.75797  -1.51817  -1.80478
N    -2.25263   0.51019   0.14828
N    -4.09602   1.34571   0.97666
H    -4.72037   1.85622   1.57960
N    -0.38815  -1.84616   1.33621
N    -1.01107  -3.87556   1.86140
H    -1.30763  -4.83301   1.76477
N     0.40814   1.85154  -1.34235
N     1.14112   3.84562  -1.86183
H     1.47768   4.78943  -1.76238
C     3.31290   0.04278   0.52711
H     3.14320   0.63714   1.40368
C     4.48222  -0.33787  -0.06110
H     5.50463  -0.14856   0.19364
C     2.77903  -1.12826  -1.18246
H     2.19958  -1.63954  -1.92784
C    -3.29439   0.10687  -0.62695
H    -3.12997  -0.51808  -1.48300
C    -4.45399   0.61889  -0.12550
H    -5.47115   0.53249  -0.44787
C    -2.75639   1.24928   1.10075
H    -2.17704   1.71511   1.87549
C    -0.40941  -1.95258   2.69167
H    -0.14589  -1.11696   3.31038
C    -0.79557  -3.21301   3.03862
H    -0.93092  -3.68165   3.99154
C    -0.75232  -3.00790   0.86168
H    -0.83391  -3.23556  -0.18442
C     0.48473   1.94283  -2.69701
H     0.20720   1.11322  -3.31759
C     0.93968   3.18104  -3.04052
H     1.13125   3.63330  -3.99172
C     0.80675   3.00063  -0.86497
H     0.86188   3.23443   0.18147
O     0.25824   0.96279   1.31486
