55

Zn    0.00000   0.00000   0.00000
Cl    0.99302   1.72252  -0.98874
N    -1.27664  -0.59773  -1.62327
N    -0.90531  -2.80023   0.77623
N     0.67041  -3.03832   2.47542
N     1.03690  -1.61638   0.62841
C    -2.17803   0.52700  -1.92006
H    -1.57275   1.43518  -1.95030
H    -2.93097   0.63737  -1.14093
C    -2.76481   0.24831  -3.30910
H    -3.70227  -0.30351  -3.23325
H    -2.96745   1.17719  -3.83720
C    -1.67880  -0.58837  -4.00169
H    -2.07460  -1.54288  -4.35010
H    -1.25582  -0.07319  -4.86131
C    -0.60738  -0.79237  -2.91539
H    -0.13111  -1.77023  -2.96976
H     0.16407  -0.02513  -2.99994
C    -2.03940  -1.77900  -1.21168
H    -2.61914  -2.17150  -2.05421
H    -2.72713  -1.46320  -0.42638
C    -1.15752  -2.90472  -0.64957
H    -0.19740  -2.92611  -1.16965
C    -1.89822  -4.24666  -0.71111
H    -2.42929  -4.40034  -1.64751
H    -1.18563  -5.06223  -0.57949
C    -2.83451  -4.15877   0.49526
H    -3.07941  -5.14142   0.89413
H    -3.76468  -3.66601   0.21745
C    -2.05264  -3.30924   1.51099
H    -2.63988  -2.46381   1.88471
H    -1.75248  -3.91239   2.36981
C     0.28202  -2.43313   1.30974
C     1.07819  -2.28797   3.66248
H     1.67550  -1.43877   3.33203
C    -0.14741  -1.76377   4.40940
H    -0.74460  -1.13253   3.75361
H     0.16342  -1.17336   5.26688
H    -0.76519  -2.58778   4.76413
C     1.92847  -3.19914   4.54097
H     2.78265  -3.57740   3.98475
H     1.34143  -4.04540   4.89294
H     2.29157  -2.64927   5.40435
C     2.48037  -1.58284   0.82285
H     2.76830  -2.37038   1.53218
C     3.12294  -1.88297  -0.53338
H     2.82644  -2.86815  -0.88774
H     4.20582  -1.85116  -0.44908
H     2.80314  -1.13708  -1.25714
C     2.96483  -0.22377   1.32479
H     2.39390   0.11268   2.18861
H     2.85815   0.51981   0.53913
H     4.01441  -0.28438   1.60377
H     0.08314  -3.81915   2.73914
O    -1.14980   0.14995   1.17387
