55

Pt    0.00000   0.00000   0.00000
C    -1.94671   0.65024  -2.60573
P    -2.06133   0.57467  -0.75434
C    -3.63504  -0.22859  -0.37324
C    -4.05243  -0.14570   0.95468
C    -5.22237  -0.76361   1.35053
C    -5.97929  -1.46936   0.42792
C    -5.55965  -1.56360  -0.88856
C    -4.38592  -0.95149  -1.29322
C    -2.36474   2.31539  -0.33720
C    -3.57514   2.93803  -0.62484
C    -3.74689   4.27612  -0.32161
C    -2.71737   4.99427   0.26741
C    -1.51316   4.37493   0.56116
C    -1.33666   3.03644   0.26073
C    -0.64770   1.35790  -2.97879
P     0.74607   0.52968  -2.07176
C     0.97893  -0.98074  -3.04652
C     0.64834  -2.19634  -2.45824
C     0.78926  -3.37200  -3.17350
C     1.25914  -3.33398  -4.47623
C     1.58942  -2.12280  -5.06552
C     1.45123  -0.94497  -4.35514
C     2.22626   1.51087  -2.40338
C     2.19085   2.89512  -2.53671
C     3.36974   3.60185  -2.69296
C     4.58545   2.93823  -2.69690
C     4.62551   1.56222  -2.53670
C     3.45236   0.84861  -2.38558
Cl    2.18366  -0.39490   0.59473
H    -1.92766  -0.37804  -2.98224
H    -2.81698   1.16742  -3.02138
H    -3.43738   0.38825   1.66577
H    -5.54267  -0.70139   2.37954
H    -6.89320  -1.95455   0.73704
H    -6.14620  -2.12138  -1.60409
H    -4.06131  -1.03925  -2.31991
H    -4.37803   2.36926  -1.07447
H    -4.68638   4.76142  -0.54168
H    -2.85829   6.03842   0.50427
H    -0.71617   4.93327   1.02887
H    -0.40370   2.52740   0.50150
H    -0.46889   1.32896  -4.05766
H    -0.69704   2.40247  -2.65785
H     0.29725  -2.20580  -1.42754
H     0.53920  -4.31658  -2.71467
H     1.37456  -4.25100  -5.03473
H     1.95965  -2.09919  -6.07997
H     1.72003   0.00196  -4.80427
H     1.24832   3.42296  -2.51227
H     3.34022   4.67605  -2.80162
H     5.50289   3.49571  -2.81344
H     5.57366   1.04656  -2.52189
H     3.47329  -0.22171  -2.23812
O    -0.58178  -0.45884   1.47428
