37

Hg    0.00000   0.00000   0.00000
Br    0.74128  -1.02415  -2.08564
C    -2.58146  -1.80353   1.17864
C    -3.35593  -2.69397   1.91980
H    -4.39179  -2.46879   2.12283
C    -1.44287  -4.10300   2.09417
H    -0.94887  -4.99940   2.43300
C    -2.77456  -3.86105   2.38666
H    -3.35095  -4.56676   2.96596
N    -0.81685   2.40930  -0.98340
N    -2.50225   0.22772  -0.05843
C    -3.08705   1.42670  -0.57109
H    -4.05013   1.65270  -0.09001
H    -3.26412   1.26893  -1.63980
C    -2.13289   2.61098  -0.37395
H    -2.62360   3.51845  -0.75335
H    -1.98022   2.73896   0.70190
C    -0.74442  -3.15779   1.35345
H     0.29873  -3.30895   1.10465
C    -3.16669  -0.57124   0.66049
H    -4.21584  -0.38728   0.91878
N    -1.29212  -2.04050   0.91132
C     0.08869   3.47133  -0.51789
H     0.05506   3.46351   0.57519
H    -0.26128   4.45845  -0.85261
C    -0.87058   2.31779  -2.45103
H    -1.46432   1.43811  -2.70992
H     0.14367   2.11956  -2.80039
C    -1.42398   3.53080  -3.20010
H    -2.46332   3.72600  -2.94557
H    -1.37250   3.32885  -4.26684
H    -0.84011   4.42528  -2.99891
C     1.53397   3.26382  -0.95068
H     1.85134   2.23907  -0.73734
H     2.17505   3.93762  -0.38790
H     1.67876   3.45897  -2.00992
O     0.15766   0.59602   1.53049
