42

Re    0.00000   0.00000   0.00000
O    -2.26582  11.28902   4.28502
O    -3.71915   9.78939   4.79280
O    -2.04461  -2.29627  -0.35849
O     1.80351  -1.09517  -2.26507
N    -2.68812  10.15386   4.27273
N    -1.97583   5.61562   2.84934
N    -1.22316   1.12624   1.36530
N     1.07374   1.85227   0.21788
N     0.42899   6.38081   1.63531
C    -1.89544   9.15356   3.58947
C    -2.33823   7.85617   3.55656
H    -3.26598   7.56883   4.02680
C    -1.55993   6.88939   2.89114
C    -1.22267   4.74179   2.21300
C    -1.65827   3.36405   2.14950
C    -2.85240   2.93515   2.73160
H    -3.47173   3.65290   3.24472
C    -3.19609   1.60313   2.62397
H    -4.10816   1.22543   3.05663
C    -2.35479   0.73686   1.93641
H    -2.60893  -0.31065   1.83739
C    -0.86900   2.42250   1.47025
C     0.37238   2.81561   0.84790
C     2.22191   2.18513  -0.35557
H     2.76282   1.38820  -0.84954
C     2.72706   3.47991  -0.34958
H     3.66141   3.68728  -0.84531
C     2.01722   4.47871   0.28411
H     2.35707   5.50132   0.31287
C     0.81245   4.14782   0.90777
C     0.00609   5.13189   1.59379
C    -0.33213   7.28148   2.27009
C     0.08231   8.63177   2.32997
H     1.01001   8.90229   1.85194
C    -0.68760   9.55123   2.97868
H    -0.40003  10.58973   3.04154
C    -1.24887  -1.48842  -0.21156
C     1.14684  -0.73838  -1.39969
O     1.56346  -1.36644   2.28404
C     0.98351  -0.86921   1.43026
O    -0.83272   0.85564  -1.13884
