37

Fe    0.00000   0.00000   0.00000
Br   -2.18070   0.14872   0.33685
S     0.57352   1.40878   1.86098
P     2.36349   0.71754   2.26633
N     0.96667  -1.54159   0.44187
N     2.92282  -0.52293   1.25039
H     3.91940  -0.68723   1.34167
C     2.21304  -1.68546   0.93324
C     2.82125  -2.92809   1.07504
H     3.83365  -2.98086   1.44807
C     2.13295  -4.07385   0.72512
H     2.59193  -5.04413   0.81834
C     0.83137  -3.93314   0.24662
H     0.24452  -4.79169  -0.03371
C     0.30433  -2.67368   0.11753
H    -0.69630  -2.52792  -0.27701
C     2.39509   0.04047   4.01100
H     2.10494   0.88175   4.64863
C     1.33202  -1.04717   4.12206
H     1.60428  -1.92143   3.53110
H     0.36960  -0.67732   3.76963
H     1.21920  -1.35883   5.15834
C     3.77160  -0.46933   4.41532
H     3.74249  -0.81680   5.44650
H     4.52584   0.31161   4.34508
H     4.07347  -1.30871   3.79062
C     3.71891   1.97044   2.08154
H     4.67923   1.48048   2.27658
C     3.68686   2.49580   0.65232
H     2.73140   2.97662   0.45132
H     3.81510   1.69472  -0.07255
H     4.47708   3.22845   0.50411
C     3.47703   3.08432   3.09248
H     4.17253   3.90312   2.92003
H     3.60741   2.73529   4.11539
H     2.46328   3.46818   2.98232
O     1.06715   0.43505  -1.18086
