63

Fe    0.00000   0.00000   0.00000
Br    0.86428  -1.31578   1.61907
N     1.62090   0.49241  -2.43204
N     2.81301   0.62599  -0.65135
N    -0.82070  -1.64676  -2.44003
N    -2.03964  -1.92396  -0.69604
C     1.56715   0.30380  -1.08767
C     3.61196   1.00723  -1.70059
H     4.62540   1.32071  -1.55447
C     2.86434   0.91780  -2.81975
H     3.10746   1.12872  -3.84086
C     0.55720   0.19955  -3.35110
H     0.87727   0.51390  -4.34568
H    -0.33759   0.76261  -3.07327
C     0.23333  -1.30084  -3.35536
H    -0.08823  -1.60609  -4.35360
H     1.14146  -1.85942  -3.09702
C    -0.91966  -1.28669  -1.13257
C    -1.85543  -2.47665  -2.79887
H    -1.95977  -2.86544  -3.79086
C    -2.61900  -2.65131  -1.70168
H    -3.51265  -3.22059  -1.54756
C     3.34500   0.56554   0.66640
C     4.23951  -0.46068   0.97524
C     4.81642  -0.47792   2.23363
H     5.50046  -1.27487   2.48612
C     4.51996   0.49155   3.18144
C     3.61402   1.48815   2.85371
H     3.35697   2.23709   3.58916
C     3.01649   1.54301   1.60325
C     4.51170  -1.55242  -0.01387
H     5.17116  -2.29925   0.41848
H     4.97102  -1.16607  -0.92329
H     3.57261  -2.03433  -0.28478
C     5.17357   0.46678   4.52899
H     5.42597  -0.55071   4.81670
H     4.51946   0.89551   5.28421
H     6.09405   1.05173   4.50699
C     1.99233   2.58817   1.29279
H     2.07248   3.42950   1.97627
H     0.99139   2.15852   1.41537
H     2.07826   2.95255   0.27006
C    -2.52490  -1.96773   0.64280
C    -2.08094  -2.99792   1.47655
C    -2.53160  -3.02367   2.78556
H    -2.17669  -3.79967   3.44748
C    -3.42157  -2.07168   3.26541
C    -3.90953  -1.11348   2.39067
H    -4.63915  -0.39613   2.73875
C    -3.48907  -1.05376   1.06861
C    -1.17593  -4.06955   0.95175
H    -0.33065  -3.64154   0.41918
H    -1.72139  -4.71594   0.26266
H    -0.79361  -4.67368   1.76844
C    -3.87923  -2.11981   4.69125
H    -4.59838  -2.92857   4.82656
H    -4.35595  -1.18612   4.97979
H    -3.03712  -2.30674   5.35471
C    -4.10598  -0.08136   0.11177
H    -4.83861   0.54043   0.61880
H    -4.60456  -0.61637  -0.69722
H    -3.36039   0.56889  -0.33868
O    -0.78647   1.36415  -0.49302
