67

Pd    0.00000   0.00000   0.00000
Cl    1.64341  -1.53660   0.16657
P     1.35913   1.75203  -0.38971
P    -1.33612   1.81210   0.02724
N     0.01107   2.83410  -0.32453
C     0.06642   4.24030  -0.46342
C    -0.01732   4.79675  -1.71735
H    -0.12687   4.14689  -2.57404
C     0.01935   6.18724  -1.88496
H    -0.05480   6.59844  -2.88044
C     0.13790   7.00961  -0.79944
H     0.15499   8.08273  -0.92221
C     0.40332   7.30214   1.63456
H     0.41036   8.37343   1.49374
C     0.54602   6.76349   2.88216
H     0.66214   7.40495   3.74307
C     0.55776   5.37110   3.05302
H     0.69281   4.95496   4.03992
C     0.40504   4.54251   1.97781
H     0.43536   3.47096   2.11180
C     0.23110   5.06663   0.68157
C     0.25208   6.47536   0.50135
C     1.82950   1.73743  -2.14840
C     1.01721   0.93858  -2.95692
H     0.18215   0.37791  -2.50937
C     1.27787   0.82878  -4.30902
H     0.65106   0.20881  -4.93234
C     2.35880   1.50158  -4.86004
H     2.56844   1.41032  -5.91541
C     3.18345   2.26994  -4.05567
H     4.03737   2.77436  -4.48344
C     2.92699   2.38705  -2.69968
H     3.58839   2.96536  -2.07159
C     2.66815   2.58062   0.54996
C     3.10565   3.87959   0.30814
H     2.69880   4.45039  -0.51408
C     4.05533   4.44316   1.14051
H     4.39196   5.45344   0.95945
C     4.57229   3.71891   2.20347
H     5.31477   4.16761   2.84661
C     4.14114   2.42402   2.44235
H     4.54719   1.86123   3.26934
C     3.18522   1.85542   1.62030
H     2.83086   0.84355   1.78668
C    -2.72076   2.39082  -0.98813
C    -3.07007   3.72401  -1.18114
H    -2.49309   4.51446  -0.72352
C    -4.15778   4.03348  -1.97819
H    -4.42907   5.06786  -2.13227
C    -4.89963   3.02559  -2.57403
H    -5.74845   3.27869  -3.19202
C    -4.55462   1.69760  -2.37987
H    -5.13301   0.91340  -2.84456
C    -3.46415   1.37819  -1.59163
H    -3.17540   0.34622  -1.42632
C    -1.79187   2.16673   1.75710
C    -2.65316   3.18190   2.15589
H    -3.14674   3.79550   1.41678
C    -2.88265   3.39665   3.50341
H    -3.54909   4.18813   3.81313
C    -2.26545   2.59845   4.45252
H    -2.45126   2.76997   5.50238
C    -1.42176   1.57075   4.05886
H    -0.95601   0.93851   4.79993
C    -1.18503   1.35185   2.71471
H    -0.53055   0.52477   2.39444
O    -1.20369  -1.12657   0.06693
