35

Re    0.00000   0.00000   0.00000
S    -4.85921   2.03277  -3.10241
S    -1.84008   2.02577  -0.80765
O    -4.14368  -0.50282  -4.76891
O     0.29564   1.48894   2.69158
O     1.81381  -2.35288   0.85188
O     2.18353   1.60611  -1.46897
N    -2.28293  -0.89132  -3.43048
N    -0.65707  -0.83461  -1.87806
C    -3.41937  -0.20136  -3.86329
C    -3.51322   0.97571  -2.93292
C    -2.45774   0.93908  -2.06039
C    -1.72403  -0.24893  -2.35643
C    -1.49112  -2.01131  -3.66431
C    -0.47156  -1.95357  -2.68017
C     0.50786  -2.93145  -2.62227
H     1.28548  -2.88588  -1.87614
C     0.44038  -3.95283  -3.55392
H     1.18657  -4.73187  -3.53403
C    -0.56577  -4.00231  -4.51399
H    -0.58175  -4.81905  -5.21900
C    -1.55259  -3.02990  -4.58918
H    -2.33515  -3.06392  -5.32967
C    -4.94849   2.79946  -1.45422
H    -4.18829   3.56545  -1.34057
H    -4.83850   2.03068  -0.69597
H    -5.93433   3.24894  -1.39131
C    -1.17696   3.34864  -1.87949
H    -0.37833   2.95824  -2.50296
H    -0.78939   4.11380  -1.21412
H    -1.97806   3.75102  -2.49264
C     0.25648   0.92693   1.70031
C     1.17400  -1.46111   0.52294
C     1.40903   0.97976  -0.90072
O    -1.45627  -0.54127   0.55570
