45

Zn    0.00000   0.00000   0.00000
Cl   -1.37692  -1.17947  -1.40105
S    -0.31473   1.73949  -3.02244
S     1.60158  -0.32390   5.15406
O    -1.45244   1.24306   0.34353
N    -0.08662  -0.57565   2.01227
N    -3.23274   1.22712  -1.70406
H    -2.52117   0.48325  -1.51565
C    -2.44561   0.89437   1.03946
C    -2.32994   0.25641   2.32177
C    -3.43688   0.18558   3.15582
H    -3.32493  -0.28159   4.12551
C    -4.69300   0.67160   2.79053
C    -5.83698   0.59259   3.75547
H    -6.73134   1.04324   3.33436
H    -5.58892   1.10968   4.68102
H    -6.05557  -0.44557   4.00228
C    -4.85317   1.16860   1.51378
H    -5.83394   1.47136   1.17393
C    -3.78704   1.22752   0.60763
C    -3.98509   1.63536  -0.73430
H    -4.80950   2.30414  -0.97302
C    -1.10219  -0.35463   2.75214
H    -1.08985  -0.67683   3.79830
C     1.10714  -1.21372   2.53680
H     1.94174  -0.55190   2.27942
H     1.24519  -2.14058   1.96687
C     1.11235  -1.51974   3.99563
C     0.75257  -2.68031   4.61165
H     0.41848  -3.55170   4.07649
C     0.87410  -2.62288   6.01805
H     0.64248  -3.44468   6.67135
C     1.31877  -1.41649   6.45087
H     1.50345  -1.09566   7.45668
C    -3.11523   1.81947  -3.01436
H    -3.96143   2.48345  -3.21192
H    -3.08597   1.01476  -3.75330
C    -1.82793   2.58695  -3.01529
C    -1.64766   3.92874  -2.85742
H    -2.45464   4.63934  -2.81608
C    -0.28574   4.28582  -2.76984
H     0.05955   5.29728  -2.65429
C     0.54042   3.20961  -2.83695
H     1.61045   3.18507  -2.77914
O     1.52948   0.51288  -0.34664
