34

Zn    0.00000   0.00000   0.00000
I    -1.93386   1.32281  -0.83903
N     1.27924  -0.52382  -1.69842
H     0.90225  -0.91723  -2.55927
N     1.56261   1.38475   0.40535
F     4.55933  -1.29685  -2.57847
F     2.71876  -1.80394  -3.60574
C     3.28789  -1.73180  -2.36992
C     2.50345  -0.75970  -1.49843
C     3.22983  -0.24480  -0.29722
H     3.02928  -0.96031   0.51558
H     4.30438  -0.23659  -0.48448
C     2.77082   1.10476   0.14287
C     3.72750   2.24895   0.29247
H     4.12695   2.51419  -0.68966
H     4.56985   1.97974   0.93037
C     2.84150   3.35207   0.88735
H     2.92956   4.28863   0.34211
H     3.10204   3.53781   1.92848
C     1.41566   2.77331   0.78409
H     0.86385   2.82596   1.72518
H     0.81260   3.27369   0.02123
C     3.24041  -3.06189  -1.64991
C     2.08443  -3.82841  -1.72412
H     1.25940  -3.50934  -2.34362
C     1.99989  -5.00765  -1.00725
H     1.09965  -5.59882  -1.05868
C     3.06026  -5.41655  -0.21664
H     2.98562  -6.32982   0.35226
C     4.21411  -4.65380  -0.15213
H     5.04395  -4.97391   0.45842
C     4.30771  -3.47047  -0.86207
H     5.20662  -2.87433  -0.81669
O     0.31782  -1.30204   0.96239
