35

Pt    0.00000   0.00000   0.00000
N    -0.96494  -1.61274   0.97074
N     1.25208   1.65997  -0.38875
C     0.85890   0.13986   1.73729
C     0.37947  -0.62652   2.78972
C     0.99629  -0.53053   4.02712
C     2.06704   0.33949   4.18565
C     2.53980   1.11058   3.13176
C     1.93323   1.00428   1.89021
C    -0.83788  -1.44953   2.44849
C     2.35409   1.69474   0.61647
C    -0.18154  -2.77556   0.54093
C    -2.36877  -1.81671   0.61362
C     1.81026   1.72914  -1.73909
C     0.36139   2.80504  -0.17338
H     0.64948  -1.11893   4.86549
H     2.54342   0.41862   5.15189
H     3.37569   1.77889   3.28403
H    -0.82659  -2.43644   2.92964
H    -1.72437  -0.91478   2.80680
H     2.66827   2.73338   0.78445
H     3.20881   1.15118   0.19921
H    -0.20045  -2.85043  -0.54841
H     0.85190  -2.66688   0.87456
H    -0.59510  -3.70020   0.96234
H    -2.94563  -0.92345   0.85722
H    -2.45392  -1.99649  -0.45778
H    -2.78947  -2.67503   1.15055
H     2.40994   0.83978  -1.93740
H     1.00254   1.76680  -2.46955
H     2.43659   2.62103  -1.85961
H    -0.49436   2.73814  -0.84860
H     0.00478   2.80514   0.85808
H     0.88714   3.74821  -0.36702
O    -0.72986  -0.11812  -1.47508
