55

Zn    0.00000   0.00000   0.00000
Cl   -1.73185  -0.65282   1.19286
S     1.52433   1.81885   2.76329
O     4.58975   3.95296   4.35104
H     4.09884   4.55232   4.92443
N    -0.75759   1.85296  -0.83961
N     1.78457   1.46054   0.06378
N     1.56980  -1.01210   1.11669
N     2.44842   3.55778  -0.66924
C    -1.87319   1.82165  -1.55333
H    -2.54141   0.99850  -1.34312
C    -2.16837   2.78075  -2.50760
H    -3.08595   2.72200  -3.07016
C    -1.25687   3.80152  -2.72512
H    -1.44494   4.56103  -3.46919
C    -0.09517   3.83627  -1.97046
H     0.63902   4.61476  -2.10452
C     0.11357   2.83577  -1.03318
C     1.32466   2.82631  -0.12008
H     1.00008   3.23456   0.84638
C     2.47838   1.19897   1.31473
H     3.45937   1.68770   1.36756
C     2.60193  -0.28282   1.52295
C     3.69755  -0.85187   2.15913
H     4.52405  -0.23631   2.48069
C     3.70463  -2.22098   2.36902
H     4.54491  -2.69143   2.85710
C     2.61936  -2.97092   1.94392
H     2.58654  -4.03793   2.09204
C     1.56854  -2.31902   1.31931
H     0.69395  -2.84727   0.96793
C     2.67581   1.26994  -1.08369
H     2.06035   1.02559  -1.95112
H     3.36183   0.44187  -0.91338
C     3.38436   2.61936  -1.25479
H     4.34530   2.63515  -0.72268
H     3.56860   2.84705  -2.30838
C     2.80520   4.82452  -0.25904
C     1.89928   5.64203   0.42722
H     0.89660   5.29704   0.63022
C     2.26530   6.91006   0.83507
H     1.54835   7.51767   1.36759
C     3.52825   7.40588   0.56174
H     3.80875   8.39668   0.88298
C     4.41943   6.61770  -0.14557
H     5.40311   6.99451  -0.38375
C     4.06856   5.34647  -0.55581
H     4.77906   4.76242  -1.11851
C     2.53848   3.26091   3.25315
H     2.80795   3.84460   2.37151
H     1.87839   3.85979   3.88215
C     3.78568   2.84925   4.03384
H     3.48620   2.29411   4.93314
H     4.41919   2.19870   3.42528
O     0.30246  -0.66302  -1.48034
