43

Re    0.00000   0.00000   0.00000
Cl   -0.37711  -1.95620  -1.05077
Cl   -0.22031  -1.14804   2.01441
O     1.64256   0.18262  -0.14399
N    -2.28558   0.10731   0.39502
N    -0.36362   1.72191   1.02274
N     0.57527   2.61653   1.11840
N    -1.74174   3.00674   2.40622
C    -3.20496  -0.75839  -0.00651
H    -2.85022  -1.57330  -0.62438
C    -4.54019  -0.63531   0.34483
H    -5.25336  -1.36266  -0.00733
C    -4.93317   0.42391   1.15093
H    -5.96522   0.53916   1.44521
C    -3.97757   1.33047   1.57184
H    -4.21286   2.17228   2.20192
C    -2.66091   1.13978   1.16521
C    -1.57474   2.02357   1.54635
C    -0.71883   3.79742   2.69493
C     0.43961   3.69590   1.85859
C     1.48631   4.70345   1.73112
C     2.77877   4.29622   1.39621
H     2.97200   3.24409   1.25760
C     3.78346   5.23341   1.25494
H     4.78330   4.91341   1.00439
C     3.50832   6.58097   1.42873
H     4.29466   7.31230   1.31716
C     2.22023   6.99199   1.73516
H     2.00118   8.04274   1.85175
C     1.21009   6.06213   1.88803
H     0.20398   6.38836   2.10625
C    -0.83967   4.67011   3.85281
C     0.27573   4.99582   4.62724
H     1.24475   4.59468   4.37160
C     0.13241   5.80608   5.73623
H     0.99725   6.04971   6.33444
C    -1.11435   6.30355   6.08346
H    -1.21860   6.94305   6.94690
C    -2.22749   5.97220   5.32673
H    -3.20001   6.35248   5.60114
C    -2.09597   5.15293   4.22295
H    -2.95288   4.88843   3.62318
O    -0.54115   0.75133  -1.36571
