25

Pt    0.00000   0.00000   0.00000
Cl   -0.38188   1.67663  -1.53867
Cl   -3.69862   3.08569   4.26859
N    -1.12036   0.93499   1.29605
C    -2.21368   0.35394   1.79572
H    -2.42620  -0.65304   1.45590
C    -3.03796   0.97841   2.71080
H    -3.91286   0.47699   3.09057
C    -2.71205   2.26274   3.13165
C    -1.57235   2.86826   2.61466
H    -1.28877   3.86292   2.91686
C    -0.80993   2.16915   1.69993
H     0.07656   2.61401   1.26302
Cl    3.69880  -3.08563  -4.26849
N     1.12031  -0.93513  -1.29600
C     2.21362  -0.35402  -1.79561
H     2.42609   0.65296  -1.45577
C     3.03797  -0.97843  -2.71067
H     3.91286  -0.47696  -3.09040
C     2.71213  -2.26276  -3.13158
C     1.57244  -2.86835  -2.61465
H     1.28892  -3.86301  -2.91688
C     0.80994  -2.16929  -1.69993
H    -0.07655  -2.61420  -1.26308
O     0.27308  -1.19894   1.10022
