25

Pd    0.00000   0.00000   0.00000
Cl    0.49892   3.93051  -5.04763
N     0.15134   1.18758  -1.52461
C    -0.36081   2.41757  -1.47612
H    -0.84425   2.70543  -0.54413
C    -0.27957   3.29734  -2.53900
H    -0.70455   4.28511  -2.46813
C     0.36548   2.87943  -3.69785
C     0.90090   1.59698  -3.74640
H     1.40574   1.24149  -4.62965
C     0.76795   0.78483  -2.63600
H     1.15870  -0.23131  -2.63299
Cl    1.40359   1.35747   1.19408
Cl   -0.49450  -3.93117   5.04730
N    -0.14669  -1.18762   1.52482
C     0.36533  -2.41767   1.47605
H     0.84860  -2.70545   0.54393
C     0.28399  -3.29763   2.53875
H     0.70889  -4.28543   2.46771
C    -0.36105  -2.87991   3.69768
C    -0.89647  -1.59748   3.74644
H    -1.40139  -1.24214   4.62970
C    -0.76340  -0.78512   2.63623
H    -1.15432   0.23095   2.63330
O    -1.00955  -0.98011  -0.86179
