43

Pt    0.00000   0.00000   0.00000
N     0.03144  -0.17106  -2.00474
N    -1.84997  -0.86734  -0.24040
N    -0.55672  -0.04228   1.94024
C     0.98014   0.17669  -2.84955
H     1.90816   0.53798  -2.42968
C     0.81594   0.11058  -4.23654
H     1.62960   0.40978  -4.87739
C    -0.37908  -0.31701  -4.74523
H    -0.55035  -0.36657  -5.81016
C    -1.42141  -0.68244  -3.86713
C    -2.68908  -1.07744  -4.32355
H    -2.86792  -1.13279  -5.38581
C    -3.68936  -1.34367  -3.42070
H    -4.67653  -1.60170  -3.77500
C    -3.46690  -1.28554  -2.05095
H    -4.29431  -1.45239  -1.38254
C    -2.21163  -0.96299  -1.53506
C    -1.17197  -0.60793  -2.46894
C     0.02856   0.50601   2.98498
H     0.93835   1.06227   2.80830
C    -0.48657   0.40090   4.28038
H     0.03399   0.88003   5.09378
C    -1.62996  -0.32082   4.48498
H    -2.04356  -0.44951   5.47404
C    -2.29359  -0.90293   3.38414
C    -3.46520  -1.66452   3.52129
H    -3.88147  -1.81088   4.50550
C    -4.05247  -2.22351   2.41206
H    -4.93180  -2.84065   2.52507
C    -3.55364  -2.00187   1.13503
H    -4.03747  -2.47570   0.29762
C    -2.42622  -1.20563   0.92836
C    -1.73504  -0.70664   2.09132
C     1.94322   0.76856   0.20512
H     2.28837   0.76999   1.24158
H     1.99460   1.79799  -0.15642
H     2.67173   0.17916  -0.35835
C     0.84253  -1.89807   0.22126
H     0.04513  -2.63139   0.34827
H     1.49165  -1.94200   1.09498
H     1.42699  -2.17583  -0.65541
O    -0.67908   1.49700  -0.14266
