66

Pt    0.00000   0.00000   0.00000
C    -0.51893  -2.02786   0.05108
P     0.60855  -0.07701  -2.26768
C     4.33877   2.63045   2.04040
H     4.27041   1.93741   2.87663
H     4.59208   3.61082   2.43719
H     5.15161   2.32419   1.38128
C    -1.68610  -2.70647  -0.26383
H    -2.53897  -2.19245  -0.68509
Br   -2.12904   0.89081  -0.88845
F    -2.90795  -4.71761  -0.35484
C    -1.77601  -4.06617  -0.02202
C    -0.73598  -4.78858   0.53981
H    -0.85277  -5.84511   0.72125
C     0.42797  -4.12585   0.86627
H     1.23657  -4.67858   1.31968
C     0.55070  -2.75567   0.62504
N     1.68773  -0.68447   0.74927
C     1.76047  -2.00463   0.95526
C     2.95369  -2.54512   1.43337
H     3.04424  -3.60204   1.61530
C     4.02406  -1.69625   1.63997
H     4.97264  -2.09652   1.96558
C     3.89264  -0.33128   1.44451
H     4.74489   0.30046   1.59816
C     2.66398   0.19452   1.03489
C     2.28172   1.60078   0.86875
C     3.03565   2.71135   1.30171
C     2.53196   3.98406   1.07551
H     3.08998   4.85426   1.38485
C     1.29793   4.16103   0.48268
F     0.85256   5.41550   0.27330
C     0.51303   3.08775   0.10909
H    -0.46970   3.26982  -0.30171
C     1.00243   1.80532   0.28541
C     0.65712   1.56765  -3.09113
H     0.46326   1.41709  -4.15626
H    -0.17777   2.14560  -2.68354
C     1.96440   2.33846  -2.90382
H     2.27139   2.30538  -1.85643
H     2.75671   1.88121  -3.50046
C     1.79264   3.79266  -3.32610
H     1.46717   3.85589  -4.36208
H     2.73288   4.32922  -3.22699
H     1.05111   4.28516  -2.70265
C    -0.55221  -1.06841  -3.29250
H    -0.63485  -2.04908  -2.81215
H    -1.52870  -0.58064  -3.21181
C    -0.18729  -1.24111  -4.76641
H    -0.13577  -0.27125  -5.26318
H     0.78635  -1.72286  -4.87048
C    -1.24404  -2.09100  -5.46350
H    -0.99536  -2.21866  -6.51416
H    -2.21875  -1.61498  -5.39538
H    -1.31082  -3.07426  -5.00392
C     2.27541  -0.78768  -2.61165
H     2.55265  -0.52537  -3.63668
H     2.98007  -0.28574  -1.93972
C     2.35266  -2.30060  -2.40765
H     1.87015  -2.81268  -3.24081
H     1.81511  -2.58373  -1.50145
C     3.79844  -2.76966  -2.30044
H     4.35568  -2.50373  -3.19630
H     3.83774  -3.84918  -2.17959
H     4.28731  -2.31167  -1.44231
O    -0.52192   0.11923   1.56073
