39

Pd    0.00000   0.00000   0.00000
Cl   -0.89077   1.54971  -1.31808
N     1.66345   0.97265   0.34418
N     0.92190  -1.33373   1.19290
C     3.85022   0.99530   1.47291
H     3.94934   1.97778   1.01705
H     4.66805   0.36274   1.12966
H     3.93222   1.09760   2.55429
C     2.53133   0.38744   1.10501
C     2.14761  -0.92059   1.59841
C     2.94039  -1.72174   2.42467
H     3.91256  -1.37669   2.73738
C     2.46454  -2.95222   2.83086
H     3.06133  -3.58626   3.46835
C     1.20432  -3.35977   2.40414
H     0.79952  -4.31363   2.70013
C     0.46818  -2.52073   1.58782
H    -0.51905  -2.78946   1.22756
C     1.87209   2.24641  -0.21153
C     2.44712   2.35225  -1.48097
C     2.61031   3.61382  -2.02423
H     3.04917   3.71123  -3.00658
C     2.19822   4.75484  -1.34558
C     1.57681   4.61481  -0.11306
H     1.20743   5.49009   0.40112
C     1.39349   3.36962   0.46573
C     2.79287   1.09868  -2.22578
H     3.04073   1.32125  -3.25952
H     1.92566   0.42000  -2.20787
H     3.63714   0.58174  -1.76712
C     2.38833   6.10437  -1.96777
H     2.05990   6.89349  -1.29676
H     1.81451   6.17415  -2.89076
H     3.43665   6.26753  -2.21446
C     0.64349   3.17714   1.74883
H    -0.13961   2.41586   1.59689
H     0.17234   4.10416   2.06228
H     1.30144   2.83124   2.54764
O    -1.35889  -0.91204  -0.20999
