32

Pt    0.00000   0.00000   0.00000
N     1.10944  -1.53191  -0.72816
N    -1.17297   1.44733   0.78263
O    -0.97108  -1.16967   1.38699
O    -2.52413  -1.02823   2.95614
C    -1.58231   1.03624   2.14371
C    -2.91268   1.74930   2.43169
C    -3.33137   2.36332   1.08743
C    -2.44739   1.63615   0.07165
C    -1.73629  -0.52888   2.18311
C     0.30685  -2.62673  -1.29072
C     1.29123  -3.79656  -1.44974
C     2.40251  -3.50486  -0.42370
C     1.95252  -2.20832   0.26593
H    -0.70488   2.35792   0.82746
H     1.71731  -1.16265  -1.46950
H    -0.79874   1.28756   2.86610
H    -2.80814   2.50865   3.20504
H    -3.63005   1.00616   2.78389
H    -3.11715   3.43350   1.06923
H    -4.38907   2.22410   0.87824
H    -2.86815   0.65068  -0.15429
H    -2.29545   2.18722  -0.85724
H    -0.15739  -2.32362  -2.23010
H    -0.47078  -2.87621  -0.56343
H     1.69660  -3.82394  -2.46095
H     0.80034  -4.74814  -1.25992
H     3.36011  -3.35941  -0.92361
H     2.51891  -4.31231   0.29522
H     2.78340  -1.57084   0.56996
H     1.32825  -2.43246   1.13501
O     0.72357   0.98835  -1.10549
