43

Pt    0.00000   0.00000   0.00000
N    -0.13670   1.67732  -1.42141
N     0.64548  -0.86396  -1.68821
N    -1.79956  -1.11048  -0.66595
C    -0.57653   2.90321  -1.26048
H    -1.23547   3.08404  -0.42141
C    -0.21393   3.95457  -2.11219
H    -0.58987   4.94627  -1.91720
C     0.61183   3.69583  -3.17244
H     0.91949   4.48017  -3.84891
C     1.06653   2.37926  -3.39750
C     1.86068   2.01078  -4.49829
H     2.16563   2.76892  -5.20302
C     2.21846   0.69883  -4.66819
H     2.81832   0.41129  -5.51922
C     1.83522  -0.28919  -3.76072
H     2.14561  -1.30409  -3.94134
C     1.08525   0.02268  -2.63659
C     0.67926   1.38604  -2.46226
C    -3.01907  -1.14853  -0.18440
H    -3.33541  -0.30841   0.42011
C    -3.88861  -2.22379  -0.41032
H    -4.87498  -2.20603   0.02504
C    -3.45968  -3.27803  -1.17092
H    -4.09420  -4.13338  -1.35322
C    -2.16439  -3.25274  -1.72949
C    -1.64846  -4.27503  -2.54826
H    -2.26466  -5.13432  -2.76415
C    -0.38034  -4.16790  -3.05455
H     0.02023  -4.95762  -3.67301
C     0.42394  -3.05697  -2.78768
H     1.42203  -3.02975  -3.19217
C    -0.03346  -2.02267  -1.98992
C    -1.35039  -2.13067  -1.43647
C     1.86552   0.76258   0.47071
H     2.61482   0.34861  -0.20758
H     2.15887   0.53704   1.49628
H     1.84935   1.85014   0.35882
C     0.41451  -1.66730   1.15696
H     1.03611  -2.36746   0.59478
H    -0.52211  -2.16424   1.42450
H     0.92938  -1.41119   2.08333
O    -0.69454   0.76426   1.28686
