51

Pd    0.00000   0.00000   0.00000
S    -0.10824  -1.46933  -2.57983
N     1.26798  -1.54596   0.50963
H     2.15854  -1.09131   0.26136
C     0.87659  -1.09576  -3.93407
H     0.44910  -0.56517  -4.76115
C     2.14787  -1.54722  -3.78733
H     2.92024  -1.41112  -4.52237
C     2.35295  -2.19623  -2.54998
H     3.29816  -2.60775  -2.24167
C     1.22763  -2.23694  -1.78458
C     1.06245  -2.70513  -0.37610
H     1.79094  -3.49438  -0.14173
H     0.04778  -3.09105  -0.23075
C     1.21841  -1.74203   1.91558
C     0.34816  -2.64695   2.51756
H    -0.32742  -3.24144   1.92383
C     0.31889  -2.75981   3.89639
H    -0.36885  -3.45483   4.35393
C     1.15864  -1.99400   4.68663
H     1.13058  -2.09230   5.76145
C     2.03415  -1.10053   4.09105
H     2.69400  -0.49828   4.69734
C     2.06931  -0.97637   2.71524
H     2.74435  -0.27011   2.24908
Cl   -1.91911  -1.14733   0.59768
S     0.10826   1.46960   2.57946
N    -1.26799   1.54586  -0.50997
H    -2.15853   1.09122  -0.26156
C    -0.87655   1.09636   3.93381
H    -0.44907   0.56589   4.76097
C    -2.14770   1.54826   3.78721
H    -2.91997   1.41264   4.52245
C    -2.35277   2.19706   2.54975
H    -3.29789   2.60889   2.24155
C    -1.22757   2.23722   1.78415
C    -1.06240   2.70514   0.37559
H    -1.79085   3.49440   0.14111
H    -0.04772   3.09102   0.23016
C    -1.21857   1.74178  -1.91595
C    -0.34837   2.64662  -2.51811
H     0.32732   3.24112  -1.92452
C    -0.31930   2.75940  -3.89696
H     0.36841   3.45435  -4.35465
C    -1.15921   1.99357  -4.68703
H    -1.13131   2.09182  -5.76186
C    -2.03465   1.10017  -4.09127
H    -2.69461   0.49791  -4.69742
C    -2.06962   0.97610  -2.71544
H    -2.74465   0.26993  -2.24913
O     1.36802   0.81804  -0.42641
