31

Au    0.00000   0.00000   0.00000
N    -0.00003   1.94574  -0.00005
C     1.70677   0.29288  -1.07171
C     2.59068  -0.61283  -1.63062
H     2.40021  -1.67023  -1.51735
C     3.70997  -0.18302  -2.32954
H     4.38604  -0.90848  -2.75821
C     3.96278   1.17133  -2.47873
H     4.83558   1.50272  -3.02221
C     3.09876   2.10061  -1.93296
H     3.30029   3.15524  -2.05209
C     1.97215   1.67246  -1.23153
C     1.00637   2.57526  -0.62687
C     1.02150   3.96863  -0.63549
H     1.81695   4.50067  -1.13008
C    -0.00002   4.65526  -0.00002
H    -0.00001   5.73532   0.00000
C    -1.70683   0.29288   1.07163
C    -2.59073  -0.61283   1.63055
H    -2.40024  -1.67024   1.51731
C    -3.71004  -0.18302   2.32945
H    -4.38610  -0.90848   2.75813
C    -3.96287   1.17133   2.47860
H    -4.83569   1.50272   3.02206
C    -3.09885   2.10061   1.93283
H    -3.30040   3.15524   2.05193
C    -1.97222   1.67246   1.23143
C    -1.00643   2.57526   0.62678
C    -1.02154   3.96863   0.63543
H    -1.81698   4.50066   1.13005
O    -0.00002  -1.65000   0.00002
