54

Ti    0.00000   0.00000   0.00000
Cl   -0.36234  -1.51168   1.54466
P     3.07022   0.27150   0.90066
N     1.71353   0.37611   0.13655
N     5.25257  -0.03179  -1.94735
C    -1.68790   0.45953  -1.59404
H    -2.43957   1.23490  -1.51450
C    -0.41342   0.60794  -2.18770
H    -0.05112   1.50078  -2.68409
C     0.20935  -0.66413  -2.19996
H     1.13543  -0.91543  -2.70185
C    -0.67173  -1.58004  -1.58352
H    -0.52589  -2.65225  -1.51367
C    -1.84177  -0.88162  -1.21495
H    -2.73279  -1.32489  -0.78827
C     5.20207  -0.43121  -3.20720
H     6.00578  -1.08678  -3.51658
C     4.20145  -0.05370  -4.08686
H     4.20204  -0.40663  -5.10609
C     3.20413   0.79013  -3.61762
H     2.40561   1.11000  -4.27210
C     3.25173   1.21805  -2.30280
H     2.49887   1.87596  -1.89087
C     4.30058   0.77760  -1.49504
C     4.37730   1.19727  -0.06985
H     4.10758   2.25071   0.00941
H     5.37388   1.02797   0.32996
C     3.09823  -2.20919  -0.22788
H     3.40699  -3.25306  -0.25629
H     3.43727  -1.72513  -1.14190
H     2.00365  -2.16166  -0.18803
C     5.21221  -1.60385   0.97237
H     5.51603  -2.64317   1.09370
H     5.65740  -1.02876   1.78075
H     5.60022  -1.24657   0.02116
C     3.14144  -2.21849   2.24800
H     3.34623  -3.28704   2.18328
H     2.06194  -2.08455   2.31146
H     3.61274  -1.84682   3.15453
C     3.68884  -1.52414   1.00433
C     4.34052   1.16348   3.30899
H     4.26235   1.77510   4.20724
H     5.14974   1.56108   2.70018
H     4.59644   0.15229   3.61461
C     1.88103   0.62712   3.40624
H     1.66426   1.30336   4.23261
H     2.12773  -0.34278   3.82596
H     0.97622   0.53062   2.79856
C     2.64078   2.63844   2.19283
H     2.32110   3.17433   3.08510
H     1.80730   2.63243   1.48498
H     3.47926   3.18444   1.76557
C     3.01459   1.19941   2.55844
O    -0.64517   1.28696   0.80622
