69

Ti    0.00000   0.00000   0.00000
Cl    0.88236   1.65198   1.16144
P    -1.45191   1.69367  -2.36517
N    -0.56661   0.75647  -1.49385
N     0.40931   4.82809  -2.64649
C     0.26455  -2.17131  -0.68698
C     0.36571  -2.18603   0.73598
C     1.49425  -1.42118   1.10504
C     2.10976  -0.94023  -0.08344
C     1.36742  -1.42447  -1.19715
C    -0.71023  -2.99804  -1.47628
H    -0.37530  -4.03839  -1.51359
H    -0.80664  -2.63195  -2.49693
H    -1.69637  -2.98087  -1.01042
C    -0.48897  -3.01723   1.64632
H    -0.15219  -4.05732   1.62350
H    -1.53530  -2.99263   1.34020
H    -0.42891  -2.66368   2.67451
C     2.02509  -1.22615   2.49419
H     2.73029  -2.02291   2.74581
H     1.22022  -1.24168   3.22965
H     2.54457  -0.27207   2.57881
C     3.41422  -0.19929  -0.14467
H     4.23391  -0.85687   0.15610
H     3.40507   0.65727   0.53143
H     3.61354   0.15843  -1.15390
C     1.81499  -1.34451  -2.63184
H     2.86529  -1.63261  -2.70541
H     1.71175  -0.33622  -3.04051
H     1.23719  -2.02771  -3.25155
C     1.19739   5.57754  -1.89378
H     1.00037   6.64112  -1.93657
C     2.20433   5.06197  -1.09522
H     2.81333   5.71330  -0.48866
C     2.40031   3.68832  -1.09642
H     3.16809   3.24128  -0.48304
C     1.58977   2.89675  -1.89081
H     1.70381   1.81982  -1.91036
C     0.59026   3.51088  -2.64599
C    -0.34292   2.70413  -3.48456
H     0.22563   1.97015  -4.05884
H    -0.91037   3.35077  -4.15026
C    -3.79701   2.29595  -0.92164
H    -4.28503   2.95519  -0.20412
H    -3.55737   1.36261  -0.41176
H    -4.50183   2.10362  -1.72663
C    -1.69899   3.37975  -0.20909
H    -2.22935   4.15501   0.34307
H    -0.72381   3.77139  -0.49172
H    -1.54925   2.52467   0.45452
C    -2.83509   4.17986  -2.28679
H    -3.50534   4.83767  -1.73397
H    -3.32776   3.90239  -3.21485
H    -1.92905   4.73619  -2.51679
C    -2.51784   2.95936  -1.42720
C    -3.44265   1.39138  -4.45485
H    -3.91054   0.69770  -5.15371
H    -2.91928   2.14959  -5.03385
H    -4.23288   1.87032  -3.88367
C    -1.44846  -0.10556  -4.41825
H    -1.91421  -0.94508  -4.93361
H    -0.65216  -0.48618  -3.77870
H    -1.02223   0.54990  -5.17493
C    -3.21213  -0.40791  -2.69903
H    -3.45477  -1.29061  -3.28974
H    -4.13988  -0.01391  -2.29605
H    -2.56939  -0.70830  -1.86492
C    -2.48031   0.62498  -3.55719
O    -1.41126  -0.11788   0.84673
