25

Pt    0.00000   0.00000   0.00000
Cl   -0.88417   1.23993  -1.82762
Cl    0.64536  -1.23847   1.92687
Cl    1.84598   1.35357   0.14094
N    -1.18678   1.14206   1.23824
N    -1.72947  -1.12003  -0.02852
C    -0.81051   2.27002   1.81581
C    -1.66505   2.98799   2.63703
C    -2.94435   2.49894   2.85056
C    -3.32585   1.31613   2.23974
C    -2.41844   0.64262   1.42424
C    -2.71790  -0.61428   0.72519
C    -3.94013  -1.27894   0.80629
C    -4.12179  -2.45776   0.10268
C    -3.08148  -2.95171  -0.66879
C    -1.89064  -2.24415  -0.70520
H     0.20270   2.59489   1.60719
H    -1.33029   3.90483   3.09346
H    -3.63854   3.02985   3.48366
H    -4.31715   0.92487   2.39655
H    -4.73986  -0.88395   1.41027
H    -5.06385  -2.98131   0.15760
H    -3.18359  -3.86470  -1.23191
H    -1.03695  -2.57491  -1.28617
O     0.85473  -0.99247  -1.00346
