56

Ni    0.00000   0.00000   0.00000
Cl    1.69972   1.27695  -0.50514
N    -0.45826  -0.02595  -1.77530
N     0.83532  -1.98473  -0.57680
N    -1.61582   1.48822  -0.08445
C    -1.20622   0.94939  -2.30290
C    -1.38966   1.04504  -3.69376
H    -1.99033   1.84932  -4.08980
C    -0.79370   0.12948  -4.52441
H    -0.90353   0.20087  -5.59631
C    -0.02552  -0.91641  -3.97266
C     0.64995  -1.91495  -4.72807
H     0.56554  -1.88280  -5.80447
C     1.39433  -2.87713  -4.12277
H     1.91330  -3.61954  -4.71133
C     1.50956  -2.94706  -2.70422
C     2.25307  -3.91610  -2.00996
H     2.79686  -4.67098  -2.55965
C     2.27684  -3.87954  -0.63566
H     2.84435  -4.60330  -0.07217
C     1.54893  -2.89584   0.04593
H     1.54573  -2.85070   1.12694
C     0.82897  -1.99024  -1.92625
C     0.08845  -0.95323  -2.56980
C    -1.75161   1.84545  -1.31448
H    -2.26133   2.75779  -1.61993
C    -2.01528   2.26577   0.99011
C    -2.79881   1.62371   1.97103
C    -3.24054   2.36175   3.05376
H    -3.86229   1.90041   3.80376
C    -2.88550   3.69277   3.19175
H    -3.24186   4.25967   4.03928
C    -2.05345   4.28974   2.26478
H    -1.75017   5.31516   2.41124
C    -1.59757   3.59907   1.15089
C    -3.17586   0.17649   1.77130
H    -2.34971  -0.30531   1.22215
C    -3.35422  -0.58146   3.08354
H    -2.48413  -0.43416   3.71788
H    -3.45364  -1.64548   2.87929
H    -4.24614  -0.25845   3.61570
C    -4.44063   0.08169   0.91212
H    -4.29395   0.56826  -0.05057
H    -5.27514   0.56489   1.41741
H    -4.70020  -0.96000   0.73554
C    -0.59044   4.24852   0.23176
H    -0.28362   3.54032  -0.54306
C    -1.17938   5.48566  -0.45019
H    -0.46029   5.89927  -1.15354
H    -1.42179   6.25253   0.28150
H    -2.09035   5.23671  -0.99300
C     0.67587   4.59929   1.01668
H     1.09209   3.69696   1.45705
H     0.47254   5.31600   1.80829
H     1.41908   5.02139   0.34464
O     0.33953  -0.04594   1.61404
