53

Ni    0.00000   0.00000   0.00000
N     1.74826  -1.20679   0.64801
N     0.19856  -1.05506  -1.47554
N    -1.04527   1.13809  -1.50049
Br   -1.65273  -1.46415   0.86870
C     2.44332  -1.29437   1.76043
H     2.34903  -0.46915   2.45449
C     3.26637  -2.38979   2.04825
H     3.81237  -2.40839   2.97799
C     3.37391  -3.41963   1.14351
H     4.01049  -4.27089   1.33694
C     2.63513  -3.35827  -0.04975
C     2.66352  -4.34730  -1.07451
H     3.29445  -5.21161  -0.92788
C     1.93134  -4.21327  -2.21100
H     1.97338  -4.96634  -2.98405
C     1.07910  -3.09273  -2.41463
C     0.27232  -2.88736  -3.55090
H     0.27738  -3.61663  -4.34705
C    -0.50914  -1.76141  -3.63631
H    -1.12033  -1.58331  -4.50650
C    -0.52929  -0.83994  -2.57593
C     1.01389  -2.11516  -1.40472
C     1.82035  -2.22510  -0.23412
C    -1.29559   0.39751  -2.52559
C    -2.24915   0.75143  -3.61931
H    -2.64217   1.75379  -3.46492
H    -3.07690   0.04329  -3.63863
H    -1.74249   0.71170  -4.58294
C    -1.65966   2.36813  -1.24439
C    -2.98987   2.46205  -0.81693
C    -3.48206   3.72165  -0.50185
H    -4.49596   3.81197  -0.14328
C    -2.69478   4.84907  -0.62032
H    -3.10142   5.81870  -0.37504
C    -1.37470   4.73947  -1.02483
H    -0.76601   5.62620  -1.08893
C    -0.83203   3.50330  -1.32220
C    -3.85392   1.24922  -0.60477
H    -4.08525   1.18089   0.46153
H    -3.31681   0.33776  -0.86728
C    -5.16238   1.30345  -1.39220
H    -5.72242   0.38508  -1.23392
H    -4.97497   1.41488  -2.45866
H    -5.77942   2.13790  -1.06976
C     0.60203   3.29990  -1.73180
H     1.00761   2.48293  -1.11725
H     0.63193   2.95598  -2.77315
C     1.50094   4.51769  -1.57676
H     2.52635   4.25014  -1.82434
H     1.47933   4.87523  -0.55044
H     1.19285   5.32166  -2.24184
O     0.00745   1.07873   1.24851
