55

Re    0.00000   0.00000   0.00000
Cl    0.10385  -1.79284  -1.38570
P     1.13947   1.19962  -1.82629
O     2.00628  -0.12295   0.46224
O    -1.51967   0.61026  -0.27942
N     0.31668   1.52166   1.52055
C    -0.59228   2.32565   2.02615
H    -1.58516   2.25181   1.60546
C    -0.28791   3.22800   3.05277
H    -1.07093   3.86150   3.43819
C     0.98765   3.29448   3.55094
H     1.24397   3.98429   4.34148
C     1.98206   2.44147   3.02748
C     1.57112   1.55415   2.00587
C     2.48519   0.63486   1.40302
C     3.80146   0.63885   1.84417
H     4.50814  -0.04840   1.40606
C     4.19644   1.51606   2.85274
H     5.22557   1.49073   3.18026
C     3.32483   2.40222   3.43909
H     3.65499   3.06833   4.22080
C     2.20044   2.49164  -1.12498
C     1.56544   3.54802  -0.47272
H     0.48468   3.60856  -0.49895
C     2.31097   4.49378   0.20260
H     1.81617   5.30870   0.70991
C     3.69335   4.38768   0.23903
H     4.27559   5.11941   0.77830
C     4.32708   3.34434  -0.41363
H     5.40351   3.26451  -0.38623
C     3.58581   2.39414  -1.09500
H     4.07868   1.57451  -1.59830
C     0.00896   2.08237  -2.93743
C     0.36110   3.28683  -3.53971
H     1.32387   3.73361  -3.33191
C    -0.52513   3.90671  -4.40222
H    -0.25394   4.84315  -4.86729
C    -1.75588   3.32848  -4.66992
H    -2.44387   3.81790  -5.34311
C    -2.10597   2.12755  -4.07296
H    -3.06604   1.67999  -4.27983
C    -1.22769   1.50320  -3.20571
H    -1.49328   0.57343  -2.71810
C     2.19621   0.21825  -2.92677
C     2.15304   0.40118  -4.30557
H     1.48029   1.12818  -4.73666
C     2.96793  -0.35774  -5.12677
H     2.92913  -0.21451  -6.19652
C     3.82179  -1.30273  -4.58344
H     4.45045  -1.89745  -5.22940
C     3.86009  -1.49314  -3.21139
H     4.51571  -2.23863  -2.78661
C     3.05048  -0.73937  -2.38299
H     3.06058  -0.90382  -1.31532
O    -0.24556  -1.02228   1.27167
