47

Ag    0.00000   0.00000   0.00000
N     1.32259   2.80541   0.25288
N    -0.08558   2.63055   1.85887
N    -0.38970  -0.21917   3.38476
O     0.02612   2.00548  -2.16595
O     0.56216   1.49649   4.54216
C     0.45513   1.94726   0.82887
C     1.32752   4.00327   0.91488
H     1.94055   4.83171   0.63002
C     0.44532   3.88619   1.93720
H     0.16983   4.58338   2.70093
C     2.07999   2.45210  -0.92506
H     2.23984   1.36524  -0.86816
C     3.42602   3.16294  -1.01070
H     3.27468   4.23780  -1.13373
H     3.98603   2.99686  -0.08839
C     4.20451   2.63339  -2.21177
H     5.16988   3.13778  -2.27424
H     4.39021   1.56567  -2.08284
C     3.41179   2.86286  -3.49524
H     3.95856   2.45717  -4.34686
H     3.28808   3.93625  -3.65861
C     2.04133   2.20040  -3.41154
H     2.14439   1.11856  -3.31373
H     1.46298   2.39742  -4.31465
C     1.25154   2.70533  -2.20437
C    -0.99749   2.05427   2.81201
H    -1.81280   1.54806   2.28889
H    -1.39455   2.84797   3.44744
C    -0.18834   1.06727   3.69194
C     0.39460  -1.35141   3.89489
C    -0.25307  -2.62007   3.34854
H    -1.27785  -2.70919   3.70238
H     0.30112  -3.49329   3.68032
H    -0.25688  -2.61155   2.25944
C     1.82629  -1.21734   3.37225
H     1.81301  -1.18143   2.27950
H     2.42670  -2.06548   3.68734
H     2.27737  -0.30425   3.75215
C     0.36693  -1.35345   5.42390
H    -0.65728  -1.43144   5.78096
H     0.80205  -0.43699   5.81019
H     0.93353  -2.20021   5.80035
H    -0.63306   2.51710  -1.68763
H    -0.98027  -0.45002   2.59454
H     1.06642   3.78601  -2.30563
O    -0.42203  -1.56632  -0.30170
