68

Ru    0.00000   0.00000   0.00000
H     0.14250   0.19617  -1.49300
P    -2.28957   0.34882  -0.07144
P     2.28209  -0.12120   0.29092
N    -1.98757   1.96805   0.33583
H    -2.56633   2.69502  -0.07367
N     2.71396   1.31103   1.08366
H     3.67174   1.61518   0.93563
C    -0.56999   2.10150   0.05329
H    -0.29792   2.77822  -0.75895
C     0.35149   1.82942   1.06488
H    -0.02495   1.66523   2.07975
C     1.74667   2.39984   0.98989
H     1.85494   2.97769   0.06068
H     1.91993   3.07879   1.83600
C    -3.32834  -0.23298   1.38918
C    -2.29552  -0.27705   2.52033
H    -2.71178  -0.75425   3.40725
H    -1.98526   0.73281   2.78947
H    -1.41920  -0.85818   2.20899
C    -3.81919  -1.65049   1.11224
H    -4.17704  -2.11250   2.03232
H    -3.00137  -2.25664   0.71829
H    -4.63716  -1.65625   0.39510
C    -4.45871   0.70771   1.79147
H    -4.81223   0.44191   2.78775
H    -5.30313   0.64675   1.11240
H    -4.10223   1.73617   1.82161
C    -3.27757   0.36151  -1.68647
C    -3.17315  -1.04590  -2.27143
H    -3.55595  -1.06162  -3.29101
H    -3.73500  -1.76724  -1.68461
H    -2.12858  -1.35928  -2.28700
C    -4.73068   0.79953  -1.53959
H    -5.16694   0.93639  -2.52915
H    -4.80625   1.74559  -1.00447
H    -5.32125   0.05036  -1.01877
C    -2.54344   1.33151  -2.61589
H    -2.91238   1.21985  -3.63408
H    -1.47359   1.11085  -2.61266
H    -2.69210   2.36908  -2.31810
C     2.85801  -1.34889   1.60780
C     1.70481  -1.28431   2.61540
H     1.88749  -1.94740   3.46067
H     0.77596  -1.60613   2.13258
H     1.59036  -0.26717   2.99500
C     2.95012  -2.76240   1.04300
H     3.00676  -3.48379   1.85831
H     3.83644  -2.88690   0.42515
H     2.06554  -2.98861   0.44823
C     4.15100  -0.95767   2.31966
H     4.32527  -1.65156   3.14201
H     4.07491   0.04485   2.73396
H     5.01092  -1.00242   1.65895
C     3.38766  -0.20488  -1.24280
C     2.90431  -1.36604  -2.10810
H     3.34409  -1.30451  -3.10261
H     1.81821  -1.32388  -2.20237
H     3.17048  -2.32514  -1.67474
C     4.88239  -0.32450  -0.96142
H     5.43324  -0.20086  -1.89394
H     5.13311  -1.30088  -0.55570
H     5.22413   0.44422  -0.26882
C     3.11122   1.10977  -1.97873
H     3.51498   1.06928  -2.98894
H     3.56624   1.95776  -1.46797
H     2.03229   1.26981  -2.04306
O    -0.19847  -1.62579  -0.19980
