43

Pd    0.00000   0.00000   0.00000
Cl    1.50343   1.39047  -0.95459
N     0.72876  -1.56353  -1.12720
C    -3.44014  -0.05187   0.71311
C    -1.31428  -1.27507   0.72607
N    -0.96152  -2.55610   0.94885
N    -2.64992  -1.22890   0.84029
C     0.86687  -2.79272  -0.61362
C    -4.10741   0.42992   1.84043
C     1.38347  -3.84222  -1.35544
H     1.48576  -4.81974  -0.90973
C    -3.52050   0.60975  -0.51365
C    -3.13526  -2.47950   1.13062
H    -4.18098  -2.67450   1.25004
C    -2.07400  -3.31914   1.19058
H    -2.02451  -4.36958   1.39156
C    -2.72649   0.17245  -1.71010
H    -3.18040   0.54994  -2.62321
H    -2.65332  -0.91494  -1.77706
H    -1.70366   0.60314  -1.63843
C    -4.32387   1.73676  -0.59919
H    -4.38817   2.26237  -1.54068
C     1.77707  -3.61609  -2.66651
H     2.19206  -4.41658  -3.25904
C    -4.89943   1.55868   1.70876
H    -5.41165   1.94354   2.57844
C     1.09097  -1.34648  -2.39071
H     0.97997  -0.32906  -2.74753
C    -5.02511   2.21898   0.49572
C     1.62169  -2.34327  -3.19156
H     1.91086  -2.11943  -4.20542
C    -3.91605  -0.21644   3.17899
H    -4.36454   0.39435   3.95718
H    -2.85122  -0.31245   3.38714
H    -4.36578  -1.20793   3.22064
C    -5.85958   3.45604   0.37458
H    -6.39861   3.46923  -0.57026
H    -5.21549   4.33439   0.40496
H    -6.57265   3.52876   1.19159
C     0.41149  -2.98167   0.81879
H     0.50617  -4.02457   1.12599
H     1.03554  -2.34501   1.47105
O    -0.56348   1.19693   0.98608
