57

Fe    0.00000   0.00000   0.00000
P     0.15939   2.00023  -0.88745
P    -1.88121   0.39742   0.95943
P    -1.34527  -0.63471  -1.54943
P     0.08008  -2.00078   0.87446
Cl    1.77369  -0.55032  -1.20430
N    -2.57303   1.86109  -1.35002
N    -2.65146  -2.22566   0.37201
O     0.94442   3.42549  -3.05274
H     1.58066   4.00419  -2.61779
O     2.35631   3.20566   0.03678
H     2.52518   2.42766   0.59545
O    -1.26718   2.42665   2.50643
H    -0.32303   2.17976   2.44666
O    -1.91013  -1.66559  -3.87807
H    -1.65588  -2.05098  -4.72429
O     0.32875  -3.45913   3.13926
H     1.13719  -3.93071   2.90840
O     2.58005  -2.91017   0.66777
H     2.82554  -2.08423   0.21227
C     1.07643   2.14375  -2.49977
H     2.12261   1.86797  -2.32574
H     0.64240   1.42842  -3.20667
C     0.97498   3.41053   0.00580
H     0.78528   4.33130  -0.56100
H     0.54086   3.52377   1.00852
C    -1.97863   1.22913   2.61013
H    -3.02245   1.46639   2.85148
H    -1.56781   0.56796   3.38726
C    -0.76167  -1.43579  -3.09843
H    -0.03729  -0.77290  -3.59207
H    -0.23911  -2.36777  -2.82975
C     0.45587  -2.13738   2.68957
H     1.45805  -1.72853   2.86454
H    -0.26947  -1.52365   3.23607
C     1.29841  -3.24901   0.23704
H     1.04975  -4.23372   0.65368
H     1.22393  -3.29734  -0.85995
C    -1.46342   2.78426  -1.33044
H    -1.67729   3.56827  -0.59630
H    -1.36167   3.24737  -2.32014
C    -3.02960   1.48903  -0.03845
H    -3.99719   0.97757  -0.13849
H    -3.17568   2.40567   0.54540
C    -2.38107   0.74708  -2.24595
H    -1.88571   1.10983  -3.15303
H    -3.35842   0.33710  -2.53448
C    -2.92722  -1.11845   1.25366
H    -2.75378  -1.44417   2.28620
H    -3.98702  -0.84058   1.15605
C    -2.66081  -1.85980  -1.01941
H    -3.64412  -1.43601  -1.25891
H    -2.53032  -2.76555  -1.62125
C    -1.49028  -2.99059   0.75835
H    -1.34459  -3.78834   0.02142
H    -1.67230  -3.45273   1.73684
O     0.90783   0.53801   1.26842
