43

Cd    0.00000   0.00000   0.00000
N    -1.18261   0.20210  -2.20303
N    -1.59538   1.87934  -0.14582
C    -0.95383  -0.75940  -3.08299
H     0.08663  -1.01101  -3.25205
C    -1.96777  -1.42684  -3.75527
H    -1.73205  -2.21099  -4.45659
C    -3.27877  -1.07804  -3.47713
H    -4.10036  -1.59409  -3.95125
C    -3.52450  -0.06115  -2.57030
H    -4.53777   0.20529  -2.31753
C    -2.44456   0.56832  -1.95368
C    -2.62289   1.64887  -0.96525
C    -3.79619   2.40037  -0.88510
H    -4.60634   2.23345  -1.57623
C    -3.90420   3.37571   0.08961
H    -4.80639   3.96319   0.17528
C    -2.84024   3.58351   0.95338
H    -2.89003   4.32516   1.73457
C    -1.70262   2.80986   0.78544
H    -0.83775   2.93652   1.42533
Br   -1.91684  -1.37322   0.92427
N     1.18191   0.20234   2.20336
N     1.59521   1.87991   0.14663
C     0.95281  -0.75897   3.08345
H    -0.08770  -1.01089   3.25180
C     1.96648  -1.42631   3.75620
H     1.73050  -2.21044   4.45747
C     3.27758  -1.07755   3.47849
H     4.09900  -1.59344   3.95309
C     3.52366  -0.06080   2.57160
H     4.53702   0.20572   2.31932
C     2.44396   0.56855   1.95444
C     2.62262   1.64912   0.96608
C     3.79604   2.40045   0.88617
H     4.60606   2.23341   1.57744
C     3.90426   3.37599  -0.08832
H     4.80656   3.96338  -0.17378
C     2.84037   3.58418  -0.95207
H     2.89039   4.32588  -1.73321
C     1.70265   2.81065  -0.78439
H     0.83800   2.93730  -1.42458
O     1.24906  -0.89407  -0.60249
