52

C    -2.04651   3.57886   0.57913
H    -2.63394   3.59042   1.50454
H    -2.61656   4.10065  -0.19724
C    -0.64015   4.15846   0.77133
H    -0.41781   4.96667   0.06839
H    -0.46747   4.52711   1.78667
C    -0.44206   1.91909   0.21409
C    -2.80409   1.20234   0.13268
H    -3.55034   1.47612  -0.62371
H    -3.30801   1.15360   1.10636
C    -2.11792  -0.10264  -0.20562
C    -1.78068  -1.04375   0.80368
C    -0.93329  -2.14032   0.46341
H    -0.72848  -2.89062   1.21863
C    -0.33806  -2.24173  -0.78611
C    -0.68230  -1.27290  -1.78020
H    -0.26691  -1.38996  -2.77628
C    -1.62698  -0.26864  -1.54696
C    -2.33368  -0.96930   2.19846
H    -1.76410  -0.24319   2.78354
H    -2.23521  -1.93384   2.69161
H    -3.38556  -0.68606   2.20178
C     0.61211  -3.34620  -1.13727
H     0.76674  -4.01202  -0.29138
H     1.57616  -2.92605  -1.42794
H     0.22950  -3.92322  -1.98006
C    -2.09996   0.60827  -2.67249
H    -1.57288   0.35815  -3.59014
H    -1.92705   1.66195  -2.46065
H    -3.16908   0.45996  -2.83505
C     1.65541   3.16424   0.62350
H     2.11306   2.22777   0.28565
H     1.90783   3.30335   1.68060
C     2.16526   4.33036  -0.18232
C     2.82912   5.36228   0.46806
H     2.97115   5.30512   1.53798
C     3.32072   6.45152  -0.22846
H     3.83990   7.24032   0.29516
C     3.14155   6.51962  -1.59807
H     3.51901   7.36415  -2.15579
C     2.48045   5.49668  -2.25342
H     2.34906   5.55027  -3.32512
C     1.98698   4.39307  -1.56817
C     1.27775   3.31038  -2.32007
H     1.60603   2.32547  -1.99065
H     1.46799   3.40510  -3.38634
H     0.20061   3.37363  -2.16193
Cl    2.16463   0.12747  -0.91055
N    -1.76436   2.21156   0.17578
N     0.22460   3.01606   0.50809
Ru    0.00000   0.00000   0.00000
O     0.63251   0.15282   1.51627
