51

Zn    0.00000   0.00000   0.00000
Cl   -0.18684  -1.75650  -1.39588
N     0.46440   1.69539  -1.14254
C    -1.55801   3.81705  -3.14797
H    -0.97261   4.71436  -2.99818
N     2.12749  -0.45019   0.30371
C    -2.44446   3.74614  -4.20961
H    -2.53873   4.58320  -4.88609
C    -3.20455   2.60633  -4.40353
H    -3.89313   2.55019  -5.23349
C    -3.08527   1.54152  -3.52525
H    -3.68196   0.65317  -3.66646
C    -2.20628   1.61503  -2.46087
H    -2.12366   0.78990  -1.76611
C    -1.43028   2.75131  -2.26707
H    -1.03178   2.70561  -0.17214
C    -0.46925   2.80720  -1.10473
H     0.06212   3.76494  -1.10004
C     1.47239   1.70097  -1.91848
H     1.92649   3.75441  -2.28711
C     1.78301   2.83128  -2.84953
H     0.94236   2.98868  -3.52436
C     2.39930   0.52610  -1.91023
H     2.67580   2.63607  -3.43480
C     3.09281   0.26497  -0.54782
H     3.16685   0.66138  -2.67115
C     3.51446   1.58456   0.09964
H     1.81446  -0.36293  -2.16542
C     4.32798  -0.60659  -0.81306
H     5.04761  -0.07029  -1.42614
C     2.50086  -0.68672   1.70470
H     4.04366  -1.51885  -1.33356
C     1.38464  -1.45183   2.36687
H     4.82194  -0.87521   0.11748
C     1.08423  -2.74460   1.94724
H     4.20194   1.41048   0.92353
C     0.03513  -3.43991   2.51994
H     2.64535   2.11912   0.47532
C    -0.71880  -2.85514   3.52350
H     4.01960   2.20962  -0.63249
C    -0.41618  -1.57677   3.95759
H     2.00804  -1.37052  -0.12360
C     0.62927  -0.87713   3.38080
H     3.43672  -1.25865   1.77939
H     2.63184   0.27249   2.20792
H     1.67380  -3.21533   1.17200
H    -0.19681  -4.43727   2.17717
H    -1.54377  -3.39535   3.96352
H    -1.00465  -1.11374   4.73494
H     0.85287   0.12571   3.71438
O    -1.13579   0.51336   1.08118
