59

Pd    0.00000   0.00000   0.00000
P    -1.87413   0.58394  -1.11691
Si    2.39508   1.21219   1.12258
C     1.35107  -0.34367  -1.56354
C     1.72343  -1.15945  -0.47094
C     1.89184  -0.61955   0.80398
C     2.02534  -1.56155   1.97020
C     1.22435   2.59508   0.44661
C     4.13070   1.45086   0.34448
C     2.50436   1.48279   3.00922
C    -2.84675   2.09129  -0.80646
C    -2.86302   2.59684   0.49050
C    -3.60484   3.72677   0.78313
C    -4.33126   4.35846  -0.21320
C    -4.31927   3.85563  -1.50423
C    -3.58058   2.72551  -1.80496
C    -3.04665  -0.75959  -0.74761
C    -2.50503  -1.97041  -0.31851
C    -3.33534  -3.03425  -0.01853
C    -4.70883  -2.89371  -0.13989
C    -5.25106  -1.69046  -0.56109
C    -4.42516  -0.62298  -0.86582
C    -1.76351   0.56132  -2.93610
C    -2.34189  -0.41843  -3.73237
C    -2.15412  -0.39224  -5.10428
C    -1.38969   0.60414  -5.68651
C    -0.80261   1.58004  -4.89459
C    -0.98341   1.55377  -3.52632
H     1.84791   0.61333  -1.70328
H     1.10025  -0.83784  -2.49872
H     1.64497  -2.24542  -0.58052
H     1.75213  -2.58279   1.69778
H     3.05317  -1.56412   2.33734
H     1.38198  -1.23972   2.78863
H     0.24487   2.53356   0.93235
H     1.07355   2.54837  -0.63558
H     1.63731   3.57419   0.67317
H     4.84511   0.76077   0.77987
H     4.14048   1.29764  -0.72959
H     4.48618   2.45603   0.53865
H     1.54553   1.30102   3.48492
H     3.23819   0.82779   3.46642
H     2.79518   2.50494   3.22713
H    -2.29997   2.08988   1.26402
H    -3.61478   4.11540   1.79047
H    -4.90825   5.24284   0.01440
H    -4.88877   4.34496  -2.28135
H    -3.57290   2.33740  -2.81423
H    -1.41688  -2.06800  -0.20437
H    -2.91619  -3.97063   0.31964
H    -5.35837  -3.72180   0.10291
H    -6.32247  -1.58166  -0.64690
H    -4.84644   0.31984  -1.18639
H    -2.93758  -1.19888  -3.27969
H    -2.60718  -1.15478  -5.72104
H    -1.24648   0.61995  -6.75680
H    -0.20255   2.35561  -5.34773
H    -0.52685   2.30547  -2.89269
O    -0.69963   0.11004   1.49027
