36

Co    0.00000   0.00000   0.00000
C     2.36815   3.04886   1.66849
C     1.37685   2.18334   0.96637
C     0.11860   2.71403   0.46866
C    -0.24346   4.15163   0.63262
C    -2.67787  -2.98397  -0.91214
C    -1.52056  -2.12650  -0.51835
C    -0.27268  -2.65105  -0.02941
C     0.00040  -4.10967   0.13687
H     3.19668   2.43737   2.01633
H    -2.39909  -3.66937  -1.71159
H    -3.48854  -2.34373  -1.25232
H    -3.01567  -3.56974  -0.05944
H     1.22607   0.95925  -2.13229
H     0.05113  -0.07943  -2.61780
H     1.48579  -0.66005  -2.05321
H     2.50171  -0.68592   0.96638
H    -2.26062   1.31749  -0.90518
H     1.89865   3.53638   2.52034
H     2.74777   3.81987   0.99935
H     0.54515   4.79592   0.24891
H    -0.38549   4.37630   1.68861
H    -1.17112   4.35341   0.10333
H     1.01929  -4.23670   0.49523
H    -0.11924  -4.63738  -0.80844
H    -0.69067  -4.53879   0.85987
N     1.54568   0.92504   0.74853
N    -0.63469   1.84219  -0.10719
N    -1.52049  -0.83582  -0.64385
N     0.61682  -1.73437   0.19409
N     0.78480   0.06682  -1.92808
O     2.68477   0.32538   1.14376
O    -1.81873   2.21975  -0.62587
O    -2.46931  -0.15757  -1.18660
O     1.84284  -1.97017   0.50420
O    -0.63560  -0.09399   1.51976
