31

Au    0.00000   0.00000   0.00000
Br   -2.35736  -0.42172  -0.35453
S    -0.16090   2.34240   0.46893
S     2.22397   0.78002   0.42469
N     2.23362   3.38028   1.02258
O     4.98679   7.51675  -0.60120
O     4.00736   6.24307  -2.17124
C     1.53460   2.32241   0.67845
C     1.64816   4.69553   1.16852
H     1.90879   5.07470   2.16194
H     0.56237   4.61794   1.09395
C     2.19548   5.62782   0.08972
H     1.89566   5.26895  -0.89686
H     1.77475   6.62348   0.23225
C     3.72479   5.67910   0.15344
H     4.05457   6.15349   1.08151
C     4.28574   4.25671   0.05230
H     5.37002   4.26559   0.16669
H     4.04897   3.85300  -0.93418
C     3.67628   3.36677   1.13366
H     4.03656   2.34155   1.03546
H     3.94393   3.74307   2.12624
C     4.24726   6.49730  -1.02192
C     5.56815   8.36530  -1.60029
H     4.84837   8.49194  -2.41478
H     5.73625   9.31855  -1.09614
C     6.86949   7.78319  -2.12991
H     7.56676   7.61162  -1.31341
H     7.31517   8.47698  -2.83637
H     6.67732   6.84107  -2.63741
O     0.36976  -1.58331  -0.28088
