47

Ni    0.00000   0.00000   0.00000
Cl   -2.11666   0.05354  -0.06733
N     0.26215   0.78286  -2.14406
N     1.96543   0.10012  -0.16427
N    -0.07465  -0.98760   2.07325
N    -0.13350  -1.91656  -0.46039
C    -0.62435   1.21512  -3.01240
H    -1.61107   0.77654  -2.93917
C    -0.33695   2.18659  -3.97883
H    -1.11195   2.51753  -4.65234
C     0.94013   2.68327  -4.06620
H     1.21116   3.40929  -4.81967
C     1.91007   2.24092  -3.14942
C     3.25802   2.69731  -3.15450
H     3.55354   3.40825  -3.91265
C     4.14481   2.26219  -2.22732
H     5.16731   2.61114  -2.23225
C     3.75059   1.36555  -1.19350
C     4.61920   0.95310  -0.17030
H     5.64210   1.30109  -0.16416
C     4.14082   0.12370   0.81379
H     4.77555  -0.21243   1.61881
C     2.80215  -0.27498   0.77898
H     2.40203  -0.91222   1.55650
C     2.42115   0.89225  -1.15468
C     1.50116   1.30560  -2.17640
C    -0.16930  -0.45554   3.27111
H     0.27709   0.52317   3.39085
C    -0.80803  -1.09203   4.34221
H    -0.87269  -0.59630   5.29815
C    -1.32050  -2.35263   4.15960
H    -1.79145  -2.89150   4.96962
C    -1.23531  -2.94769   2.88856
C    -1.73801  -4.24683   2.59711
H    -2.19528  -4.80905   3.39857
C    -1.65645  -4.76164   1.34663
H    -2.03924  -5.74791   1.12748
C    -1.10374  -4.00654   0.27313
C    -1.07090  -4.47471  -1.05023
H    -1.45328  -5.45897  -1.27932
C    -0.56346  -3.65926  -2.03143
H    -0.52336  -3.98101  -3.06042
C    -0.10994  -2.38247  -1.69037
H     0.27284  -1.71778  -2.45348
C    -0.59976  -2.71167   0.52262
C    -0.62685  -2.19604   1.86220
O     0.05781   1.53946   0.59094
