59

Ru    0.00000   0.00000   0.00000
P    -0.15927  -0.32471   2.26026
O    -0.74751  -1.80386   2.53816
O     1.07495  -0.20775   3.29148
N    -0.75228   1.72274   0.21974
C    -1.28400   0.80368   3.13976
C    -2.62901   0.74177   2.78966
H    -2.95162   0.01149   2.05844
C    -3.53113   1.62065   3.36177
H    -4.57674   1.57026   3.09480
C    -3.09052   2.56980   4.27164
H    -3.79487   3.25826   4.71706
C    -1.74766   2.64178   4.60646
H    -1.40623   3.38784   5.30982
C    -0.84042   1.76392   4.03778
H     0.20868   1.81689   4.28358
C    -1.11077  -2.21103   3.84994
H    -1.08191  -3.30051   3.86164
H    -2.12043  -1.87006   4.08712
H    -0.41517  -1.81415   4.59406
C     2.30035  -0.87235   2.99976
H     2.94960  -0.70534   3.85885
H     2.75383  -0.44878   2.09984
H     2.13863  -1.94505   2.86148
C    -1.17585   2.76623   0.46303
C    -1.70723   4.06095   0.77936
H    -2.38925   4.38721  -0.00568
H    -0.89099   4.77763   0.87004
H    -2.24575   4.00549   1.72618
Cl    2.15944   0.98015   0.22611
P     0.16142   0.32533  -2.26023
O     0.74978   1.80444  -2.53826
O    -1.07272   0.20849  -3.29167
N     0.75569  -1.72096  -0.22058
C     1.28597  -0.80313  -3.13988
C     2.63100  -0.74127  -2.78988
H     2.95367  -0.01097  -2.05869
C     3.53303  -1.62017  -3.36211
H     4.57867  -1.56979  -3.09528
C     3.09229  -2.56931  -4.27194
H     3.79657  -3.25777  -4.71745
C     1.74939  -2.64127  -4.60661
H     1.40787  -3.38734  -5.30990
C     0.84225  -1.76336  -4.03786
H    -0.20687  -1.81629  -4.28353
C     1.11320   2.21177  -3.84997
H     1.08447   3.30129  -3.86147
H     2.12284   1.87073  -4.08715
H     0.41761   1.81513  -4.59425
C    -2.29793   0.87351  -3.00002
H    -2.94722   0.70676  -3.85915
H    -2.75162   0.45020  -2.10011
H    -2.13582   1.94615  -2.86184
C     1.17863  -2.76485  -0.46350
C     1.70930  -4.05998  -0.77929
H     2.39105  -4.38650   0.00597
H     0.89279  -4.77640  -0.87012
H     2.24810  -4.00482  -1.72604
O    -1.49545  -0.67972  -0.15522
