24

Hg    0.00000   0.00000   0.00000
N    -1.47261   1.81584   1.28860
C    -1.97104   2.95697   0.88126
C    -2.05986   4.09580   1.69321
C    -1.54426   4.03690   2.95989
C    -0.98336   2.83125   3.42699
C    -0.39582   2.70382   4.70198
C     0.16167   1.51332   5.07427
C     0.11310   0.39693   4.22874
C    -0.49182   0.44893   2.99025
C    -1.00729   1.71131   2.55536
C    -0.66256  -0.73516   2.11456
C    -0.08324  -2.04380   2.63323
H    -2.31186   2.98722  -0.14535
H    -2.49722   5.00043   1.30176
H    -1.54637   4.90207   3.60793
H    -0.39036   3.55696   5.36380
H     0.63340   1.41357   6.04069
H     0.54252  -0.52616   4.58330
H    -1.73118  -0.86201   1.90665
H    -0.28002  -2.85296   1.93287
H     0.99161  -1.97807   2.79018
H    -0.55784  -2.30240   3.58223
O     0.32648   0.98904  -1.27973
