50

Pd    0.00000   0.00000   0.00000
Cl   -1.44333   0.76745   1.51556
P     1.22164   1.86370   0.09608
C     0.97715   2.92999  -1.34839
C     1.96961   3.27097  -2.25812
H     2.98695   2.93945  -2.09967
C     1.64562   4.03909  -3.36365
H     2.41420   4.30486  -4.07464
C     0.34355   4.46855  -3.55844
H     0.09988   5.06935  -4.42189
C    -0.64919   4.12591  -2.65223
H    -1.66381   4.45893  -2.80933
C    -0.33720   3.34869  -1.55449
H    -1.09858   3.04999  -0.84038
C     1.11915   2.94657   1.54140
C     1.02856   4.33094   1.47044
H     1.02561   4.82607   0.50912
C     0.93840   5.06691   2.63978
H     0.86490   6.14343   2.59017
C     0.93616   4.42759   3.86838
H     0.85758   5.00825   4.77549
C     1.02435   3.04494   3.93866
H     1.01158   2.54964   4.89770
C     1.11273   2.30260   2.77788
H     1.15738   1.21802   2.80759
C     2.97246   1.36741   0.04704
C     3.92119   2.05310   0.79799
H     3.60729   2.88988   1.40588
C     5.25315   1.67928   0.77742
H     5.97273   2.21933   1.37378
C     5.65975   0.61678  -0.01560
H     6.69797   0.32259  -0.03888
C     4.73411  -0.06104  -0.78291
H     5.05170  -0.88562  -1.40506
C     3.37894   0.28255  -0.75469
C     2.47890  -0.45252  -1.62307
H     2.96053  -0.91169  -2.49224
N     1.21800  -0.59264  -1.47789
C     0.44389  -1.20632  -2.53139
H    -0.10473  -2.05211  -2.08497
H     1.08824  -1.55375  -3.35111
C    -0.53168  -0.18908  -3.04147
C    -0.44104   0.56598  -4.17172
H     0.37393   0.49598  -4.87072
C    -1.53490   1.44320  -4.33134
H    -1.64126   2.11369  -5.16482
C    -2.42770   1.34503  -3.31315
H    -3.34367   1.88633  -3.18401
S    -1.96843   0.17480  -2.14153
O    -0.68577  -1.49839   0.08402
