67

N     0.21092   1.08118  -2.68475
P     1.45235   0.33887  -1.73768
P    -1.19595   0.95410  -1.69971
Cl   -1.69009  -0.14823   1.51359
Pt    0.00000   0.00000   0.00000
C     2.11088  -1.03348  -2.71608
C     3.41075  -1.48312  -2.49713
H     4.05449  -0.94967  -1.81197
C     3.86432  -2.61983  -3.14129
H     4.87460  -2.96320  -2.97509
C     3.02292  -3.32492  -3.98678
H     3.38109  -4.21155  -4.48818
C     1.71267  -2.90922  -4.16658
H     1.04644  -3.47813  -4.79847
C     1.25304  -1.77711  -3.52194
H     0.22140  -1.46848  -3.62062
C     2.80995   1.52851  -1.52834
C     2.73022   2.31918  -0.38565
H     1.91140   2.15171   0.30750
C     3.69615   3.27411  -0.12933
H     3.63345   3.88205   0.76035
C     4.75176   3.43895  -1.01189
H     5.51069   4.18128  -0.81475
C     4.84455   2.64259  -2.14285
H     5.67479   2.76506  -2.82310
C     3.88029   1.68572  -2.40396
H     3.96463   1.06175  -3.28294
C    -1.76909   2.65142  -1.39420
C    -2.60329   3.34693  -2.26259
H    -2.97591   2.86717  -3.15740
C    -2.96125   4.65039  -1.96849
H    -3.60777   5.19426  -2.64149
C    -2.49868   5.25651  -0.81091
H    -2.78645   6.27270  -0.58592
C    -1.68074   4.55885   0.06438
H    -1.33637   5.02708   0.97402
C    -1.31735   3.25743  -0.22636
H    -0.70043   2.67933   0.45710
C    -2.52069   0.26323  -2.72472
C    -2.38154  -0.21597  -4.02082
H    -1.43097  -0.14472  -4.52878
C    -3.46971  -0.78060  -4.66429
H    -3.36336  -1.14618  -5.67541
C    -4.68888  -0.88215  -4.01541
H    -5.53229  -1.32711  -4.52196
C    -4.82543  -0.42388  -2.71303
H    -5.77227  -0.51695  -2.20279
C    -3.74486   0.14293  -2.06701
H    -3.82332   0.48947  -1.04430
C     0.30598   1.97449  -3.83496
H    -0.72306   2.10592  -4.19979
C     1.15414   1.36685  -4.94984
H     2.16975   1.22104  -4.57808
H     0.76152   0.38751  -5.23032
C     1.17664   2.28561  -6.16869
H     0.16471   2.37686  -6.57073
H     1.80598   1.84577  -6.94458
C     1.69701   3.66957  -5.79486
H     2.73072   3.58909  -5.45134
H     1.68369   4.31964  -6.67137
C     0.84335   4.27196  -4.68374
H    -0.18184   4.40234  -5.03822
H     1.22840   5.25428  -4.40543
C     0.84860   3.35709  -3.46330
H     1.86865   3.25760  -3.09155
H     0.23961   3.78440  -2.66434
O     1.09943  -0.57392   1.08829
