65

Zn    0.00000   0.00000   0.00000
Cl   -1.51761   1.23482   0.98836
O     0.87990  -1.05333   1.59891
N     2.33433   3.38516  -0.21810
N     1.37963   1.41654  -0.57454
C     2.10365   3.30726  -1.57407
C     4.50457   4.36756   0.42857
C     1.48623   2.05839  -1.78535
C     5.13848   3.35862  -0.24681
H     4.56812   2.60964  -0.77525
C     1.89141   2.22723   0.32576
C     2.36437   4.17602  -2.62290
H     2.84859   5.12739  -2.46463
C     2.99295   4.45770   0.47405
H     2.66653   5.40128   0.02262
H     2.66186   4.43748   1.51757
C     1.10842   1.65361  -3.05936
H     0.63770   0.69561  -3.21241
C     1.98209   3.76145  -3.88296
H     2.16538   4.40818  -4.72768
C     1.36555   2.52582  -4.09626
H     1.08617   2.25008  -5.10157
C     6.53781   3.27236  -0.28077
H     7.00000   2.46094  -0.82243
C     7.29935   4.20454   0.36073
H     8.37783   4.14799   0.33927
C     1.96743   1.91613   1.75492
C     4.69277   6.42793   1.81638
H     3.61905   6.52087   1.86639
C     2.87931   0.92962   2.21168
C     6.68997   5.26518   1.06330
C     5.27219   5.35438   1.10504
C     2.90292   0.61941   3.59602
C     7.46352   6.24202   1.72430
H     8.54018   6.16081   1.68177
C     5.47137   7.35917   2.44636
H     5.00972   8.17387   2.98443
C     6.86967   7.26887   2.40135
H     7.46824   8.01407   2.90363
C     1.12575   2.55229   2.63484
H     0.40519   3.26805   2.26938
C     3.75030   0.23827   1.34399
H     3.72970   0.46374   0.28848
C     2.02394   1.29181   4.47004
H     2.04256   1.03683   5.52028
C     1.15451   2.23458   3.99896
H     0.46977   2.73338   4.66759
C     3.79580  -0.37098   4.05756
H     3.81527  -0.59474   5.11535
C     4.61743  -1.03376   3.19047
H     5.29562  -1.79404   3.55117
C     4.59116  -0.72737   1.82120
H     5.24573  -1.25928   1.14641
N     1.65055  -2.94979   2.53292
C     1.45290  -2.13640   1.50735
H     1.84503  -2.50539   0.55161
C     1.14999  -2.61755   3.84692
H     0.65321  -1.65119   3.78886
H     0.43822  -3.37520   4.17912
H     1.97441  -2.56230   4.55911
C     2.34940  -4.20141   2.40787
H     2.64874  -4.35848   1.37431
H     3.23911  -4.19760   3.04201
H     1.70365  -5.02552   2.71846
O    -0.02423  -1.26949  -1.05371
