29

Pt    0.00000   0.00000   0.00000
Cl    0.59213  -1.76383  -1.23265
O    -1.98069   5.58261   3.59912
H    -2.14597   6.23036   4.30234
O    -1.00918   4.42228   5.24346
O     2.17272  -1.09971   6.49101
O     2.89431  -2.99051   5.54330
H     3.22188  -3.18493   6.43566
N    -0.48189   1.51966   1.19076
N     0.76087  -0.70652   1.69764
C    -1.13343   2.62793   0.83117
H    -1.41253   2.68725  -0.21375
C    -1.43603   3.63603   1.72181
H    -1.96362   4.51697   1.39660
C    -1.04561   3.49276   3.05528
C    -0.36620   2.34049   3.43139
H    -0.06531   2.23037   4.46072
C    -0.09350   1.36426   2.48059
C     0.60970   0.11778   2.76367
C     1.10301  -0.23398   4.01439
H     0.99287   0.41246   4.87014
C     1.75891  -1.44825   4.17587
C     1.90087  -2.28626   3.06743
H     2.40215  -3.23525   3.15820
C     1.38832  -1.87417   1.85553
H     1.47184  -2.48395   0.96419
C    -1.32913   4.52401   4.08758
C     2.28315  -1.80342   5.52076
O    -0.65393   0.66656  -1.36036
