38

Pd    0.00000   0.00000   0.00000
Cl   -2.28573   0.05389  -0.14044
Cl    0.15901   1.13129  -1.90909
N     2.00375  -3.09691  -1.07244
N     2.63848  -3.03868   1.57405
N     5.60437  -4.73343   1.52573
N     5.01574  -3.92154  -2.44711
N    -0.68013  -2.37098  -1.92116
N    -0.07275  -0.76462   1.82746
C     1.10514  -2.68445  -0.20362
C     1.52076  -2.46582   1.16040
C     3.50292  -3.52615   0.69916
C     3.24009  -3.39481  -0.68253
C     4.66288  -4.18663   1.17115
C     4.21591  -3.67638  -1.66418
C    -0.30855  -2.61475  -0.62613
C    -1.28030  -3.10776   0.26822
H    -0.96606  -3.40778   1.25676
C    -2.60042  -3.20794  -0.09912
H    -3.33894  -3.56987   0.59688
C    -2.96283  -2.81778  -1.38894
H    -3.99100  -2.83222  -1.70740
C    -1.98262  -2.41064  -2.25466
H    -2.22372  -2.10811  -3.26245
C     0.75928  -1.75339   2.18927
C     0.95553  -2.08074   3.53175
H     1.64310  -2.87432   3.77516
C     0.28241  -1.37144   4.50760
H     0.42849  -1.60202   5.55134
C    -0.57685  -0.35212   4.11769
H    -1.11797   0.23217   4.84404
C    -0.71991  -0.08035   2.76895
H    -1.38350   0.70668   2.42087
C     0.25522  -1.91628  -2.91208
H     1.18253  -2.47960  -2.86008
H     0.48238  -0.84133  -2.72539
H    -0.18351  -2.00082  -3.90245
O     1.63991  -0.01234   0.18177
