30

Cu    0.00000   0.00000   0.00000
N     0.57326  -1.93997   0.04277
C    -0.16299  -3.03547  -0.00256
C    -1.64032  -2.87919  -0.10724
H    -2.00709  -3.35016  -1.01822
H    -1.89933  -1.81996  -0.12268
H    -2.13300  -3.35582   0.73893
C     0.43204  -4.30794   0.04583
H    -0.19807  -5.18303   0.00677
C     1.79663  -4.42700   0.14124
H     2.26959  -5.39757   0.17934
C     2.58879  -3.26630   0.18987
C     1.91537  -2.02880   0.13640
C     4.00785  -3.28196   0.28883
H     4.50564  -4.23976   0.32900
N     1.98359   0.34942   0.12836
C     2.63206   1.49971   0.16701
C     1.83148   2.75388   0.10269
H     0.76917   2.51137   0.05680
H     2.10320   3.33082  -0.78013
H     2.02158   3.37135   0.97910
C     4.03352   1.53592   0.26433
H     4.53216   2.49239   0.29364
C     4.75073   0.36625   0.32057
H     5.82839   0.37695   0.39560
C     4.06955  -0.86307   0.27979
C     2.66396  -0.81363   0.18180
C     4.71894  -2.12782   0.33207
H     5.79634  -2.14465   0.40749
O    -1.40656   0.85837  -0.08540
