66

Zr    0.00000   0.00000   0.00000
B     0.54973  -1.83772   2.04067
C    -0.80439  -2.99563   0.16386
C    -0.94309  -4.27236   1.01729
C    -2.23582  -2.55121  -0.21169
C    -0.03507  -3.32314  -1.13294
N    -0.13343  -1.87845   0.83992
N     0.91446  -2.93367   2.98277
C     0.32791  -2.80458   4.32107
C     0.36893  -4.16664   5.03683
C     1.76545  -4.76912   5.06409
C     2.27884  -4.88418   3.63678
C     2.24042  -3.54609   2.87374
C     0.95952  -1.72002   5.22121
C    -1.15072  -2.42152   4.14821
C     2.53700  -3.86550   1.39921
C     3.38272  -2.62799   3.37024
C    -1.93937   0.48554   1.55585
C    -0.90665   1.32443   2.02925
C    -0.64077   2.29184   1.04079
C    -1.49949   2.05134  -0.05034
C    -2.31087   0.94037   0.27127
C     2.25236  -0.44459  -1.16426
C     2.50853  -0.17360   0.19855
C     2.17218   1.17474   0.44864
C     1.73760   1.74436  -0.77322
C     1.81128   0.75340  -1.76396
H    -2.46086  -0.26460   2.13654
H    -0.49519   1.31841   3.03043
H     0.00247   3.15425   1.16313
H    -1.60429   2.67301  -0.93219
H    -3.15207   0.58639  -0.31307
H     2.51163  -1.35531  -1.69163
H     3.02040  -0.82986   0.88823
H     2.37194   1.71313   1.36886
H     1.53232   2.79313  -0.95133
H     1.63007   0.90004  -2.82020
H     3.46797  -2.63293   4.45081
H     3.20792  -1.60530   3.04743
H     4.33512  -2.96222   2.96375
H     0.84761  -0.70091   2.36708
H    -0.11405  -4.35801   1.70804
H    -0.98371  -5.14777   0.37374
H    -1.86142  -4.23925   1.59856
H    -2.22263  -1.74665  -0.94720
H    -2.77355  -3.39564  -0.63978
H    -2.76842  -2.22213   0.68131
H     0.09071  -2.41960  -1.73705
H     0.94411  -3.73607  -0.90080
H    -0.58881  -4.05324  -1.72006
H    -0.29550  -4.85286   4.50718
H    -0.01003  -4.04397   6.05319
H     2.43608  -4.15580   5.66677
H     1.73312  -5.75960   5.52455
H     3.30327  -5.26147   3.63095
H     1.65207  -5.60453   3.10600
H     0.27931  -1.48859   6.03828
H     1.13096  -0.81213   4.65079
H     1.90058  -2.03765   5.65511
H    -1.66534  -2.48158   5.10523
H    -1.63607  -3.09388   3.44911
H    -1.23343  -1.40663   3.76943
H     2.45109  -2.97083   0.78785
H     3.54580  -4.26253   1.30554
H     1.84751  -4.61295   1.01969
O    -0.63879  -0.11611  -1.51689
