65

Pd    0.00000   0.00000   0.00000
Cl    1.12993  -1.96151   0.25506
N     1.14718   0.59219  -3.95832
N    -2.25651   3.31634  -1.11302
N     2.30936   0.53086  -3.35288
N    -2.53397   1.48345  -0.14739
C    -1.19491   1.54559  -0.32391
C     0.72122   0.12524  -1.84032
N    -3.17710   2.52536  -0.61492
C     1.09348   0.84375  -5.34142
C     0.24445   3.28993  -1.46319
N     2.04218   0.24941  -2.10091
C     2.63137   3.44240  -1.18371
H     3.51602   3.26773  -0.59012
C    -3.50374  -0.36466  -2.79420
H    -4.14624  -1.05347  -2.26677
C    -1.85771   1.39439  -4.17032
H    -1.21964   2.08961  -4.69698
C     0.13061   0.34955  -3.08643
C    -2.13188  -0.45419  -2.64738
H    -1.68546  -1.21235  -2.00695
C     0.35924   3.91482  -2.70415
H    -0.52239   4.08810  -3.30460
C    -1.29549   0.42236  -3.34404
C    -1.86962   5.69166  -1.42369
H    -0.99190   5.63277  -0.79877
C     1.60160   4.29460  -3.17628
H     1.68076   4.77238  -4.14206
C    -3.78064   4.62020  -2.44153
H    -4.35922   3.72347  -2.59832
C     1.39494   3.04744  -0.70748
H     1.29737   2.56204   0.26163
C    -2.62834   4.55405  -1.66882
C     0.17838   0.40523  -7.50642
H    -0.50630  -0.13842  -8.13889
C    -3.39876   6.96657  -2.76673
H    -3.69682   7.90966  -3.19851
C     1.91851   2.03877  -7.24301
H     2.58608   2.77130  -7.67020
C    -3.23091   1.48290  -4.30066
H    -3.65712   2.24386  -4.93826
C     1.02643   1.35496  -8.05310
H     0.99682   1.55644  -9.11292
C     1.95785   1.78579  -5.88412
H     2.64592   2.30271  -5.23385
C    -1.01669   2.77491  -0.96342
C    -2.25935   6.89557  -1.98140
H    -1.67375   7.78243  -1.79445
C     2.73838   4.06224  -2.41894
H     3.70622   4.36324  -2.79098
C     3.11070   0.08242  -1.15933
H     3.35581  -0.97905  -1.07372
H     2.76921   0.42205  -0.17249
H     3.97692   0.64421  -1.50316
C     0.20952   0.13990  -6.14964
H    -0.43757  -0.60918  -5.72005
C    -3.25463   0.42588   0.49937
H    -3.23201   0.58096   1.58088
H    -2.74795  -0.52617   0.29323
H    -4.28100   0.42442   0.13804
C    -4.16066   5.83115  -2.99030
H    -5.05369   5.88821  -3.59361
C    -4.05612   0.60488  -3.61658
H    -5.12811   0.67654  -3.72356
O    -0.42962   0.04795   1.59237
