47

Pt    0.00000   0.00000   0.00000
I     1.24342  -2.07439  -1.10750
N     0.92165   1.31414  -1.59205
N     1.96352   0.66928   0.87095
N     3.52851  -0.45942   6.04537
N     3.30678   0.30489   7.02249
C     0.45125   1.62076  -2.78813
H    -0.47278   1.14181  -3.08387
C     1.08277   2.51140  -3.64157
H     0.65535   2.72914  -4.60669
C     2.26337   3.11024  -3.22473
H     2.78238   3.81023  -3.86162
C     2.76023   2.79494  -1.97605
H     3.67321   3.23689  -1.60804
C     2.06230   1.88711  -1.17409
C     2.55164   1.54383   0.13936
H     3.46024   2.04524   0.47520
C     2.37863   0.41202   2.16001
C     2.71862   1.45623   3.03276
H     2.64854   2.47798   2.68666
C     3.04697   1.18732   4.33582
H     3.29058   1.97893   5.02846
C     3.08058  -0.13941   4.80219
C     2.77642  -1.18433   3.91454
H     2.80571  -2.20029   4.27527
C     2.40460  -0.91131   2.62356
H     2.16777  -1.71441   1.94239
C     3.93387   0.01612   8.21692
C     3.52695   0.77041   9.32268
H     2.74916   1.50628   9.18885
C     4.11319   0.55754  10.55356
H     3.79724   1.13627  11.40869
C     5.10921  -0.39802  10.69374
H     5.56670  -0.56156  11.65816
C     5.52289  -1.14511   9.59845
H     6.30050  -1.88579   9.71530
C     4.94397  -0.94433   8.36420
H     5.25016  -1.51232   7.49829
C    -0.73684  -1.08659   1.60167
H    -1.80313  -0.91157   1.75006
H    -0.20267  -0.74177   2.49157
H    -0.57224  -2.15712   1.47700
C    -1.74629  -0.53377  -0.97640
H    -2.56318   0.14712  -0.73672
H    -2.05205  -1.55148  -0.73015
H    -1.54536  -0.49020  -2.05027
O    -0.64870   1.37609   0.63880
