50

Pt    0.00000   0.00000   0.00000
N     0.96727  -0.77821  -1.85195
N    -0.64491  -2.11860  -0.08990
N    -3.62062  -4.68211   3.80432
N    -4.87928  -4.61422   3.87090
C     1.68541  -0.12847  -2.75328
H     1.87277   0.91865  -2.55663
C     2.18203  -0.72867  -3.89832
H     2.75691  -0.15198  -4.60466
C     1.92083  -2.07605  -4.11337
H     2.28993  -2.57581  -4.99604
C     1.17555  -2.76171  -3.17651
H     0.94283  -3.80787  -3.30277
C     0.70562  -2.08172  -2.04758
C    -0.11175  -2.75441  -1.07000
H    -0.31269  -3.81458  -1.23338
C    -1.41439  -2.78216   0.84645
C    -0.98224  -3.99246   1.40796
H    -0.02868  -4.40477   1.10729
C    -1.72944  -4.61597   2.37561
H    -1.39536  -5.54068   2.82014
C    -2.96300  -4.07876   2.77428
C    -3.39654  -2.86855   2.20397
H    -4.33901  -2.45663   2.53176
C    -2.62723  -2.22315   1.27011
H    -2.97119  -1.30537   0.81832
C    -5.48407  -5.06519   5.02433
C    -4.81256  -5.23409   6.24267
H    -3.75233  -5.03224   6.28201
C    -5.51083  -5.63658   7.36065
H    -4.99526  -5.76280   8.30146
C    -6.87547  -5.87902   7.28230
H    -7.41684  -6.19497   8.16163
C    -7.54685  -5.71110   6.07985
H    -8.60893  -5.89949   6.02522
C    -6.86192  -5.29834   4.95577
H    -7.36336  -5.16179   4.01015
C     1.67270  -0.53555   1.09526
H     1.50674  -1.52037   1.53768
H     1.92801   0.15136   1.89877
H     2.53087  -0.60231   0.42241
C    -0.87616   0.52512   1.79245
H    -0.26541   1.18902   2.40506
H    -1.05712  -0.39079   2.36295
H    -1.83212   1.01943   1.60836
C     0.69470   1.93637  -0.12095
H     1.71039   2.05159   0.25991
H     0.04492   2.63558   0.40800
H     0.68000   2.21040  -1.17974
O    -1.30562   0.36421  -0.94086
