55

Ni    0.00000   0.00000   0.00000
P     1.90006   1.02993   0.04896
P    -2.01492  -0.76261   0.08195
N    -0.63762   1.44860   1.09372
C     1.48653   2.62202   0.89441
H     2.32653   3.02284   1.46574
H     1.20157   3.34449   0.12621
C     0.27464   2.33178   1.78353
H     0.61293   1.87677   2.73025
H    -0.23784   3.27074   2.04260
C    -1.91656   1.44361   1.46362
H    -2.24934   2.24199   2.12929
C    -2.80310   0.50166   1.03092
H    -3.86779   0.56268   1.18461
C     2.41198   1.52380  -1.66815
H     2.74065   0.59217  -2.14649
C     3.53397   2.55288  -1.72479
H     3.72491   2.82639  -2.76135
H     4.45664   2.15743  -1.30692
H     3.26683   3.45781  -1.18157
C     1.15683   2.00546  -2.39856
H     1.31592   2.01395  -3.47483
H     0.87599   3.01031  -2.08714
H     0.31347   1.33470  -2.18423
C     3.46986   0.48064   0.87949
H     4.15797   1.33566   0.88771
C     4.09499  -0.68971   0.12717
H     4.95702  -1.06723   0.67478
H     4.42589  -0.39397  -0.86516
H     3.37733  -1.50077   0.01615
C     3.14127   0.08099   2.31588
H     4.03215  -0.28619   2.82292
H     2.39621  -0.71529   2.32131
H     2.75105   0.92424   2.88373
C    -1.94056  -2.31373   1.11872
H    -1.57902  -3.12020   0.46975
C    -0.90520  -2.05693   2.21136
H    -0.72465  -2.95204   2.80451
H    -1.24519  -1.26046   2.87419
H     0.04923  -1.74905   1.75869
C    -3.29776  -2.67308   1.70731
H    -3.21456  -3.57118   2.31823
H    -4.03227  -2.85883   0.92652
H    -3.66089  -1.86268   2.33758
C    -3.16016  -1.14776  -1.32778
H    -4.16961  -1.11267  -0.89350
C    -3.00763  -0.00942  -2.33461
H    -3.75603  -0.08178  -3.12182
H    -2.02052  -0.05458  -2.79510
H    -3.11665   0.95608  -1.83862
C    -2.92293  -2.49965  -1.98858
H    -3.58143  -2.60356  -2.85004
H    -3.12953  -3.32013  -1.30565
H    -1.89438  -2.58459  -2.33237
O     0.49069  -1.21494  -1.00282
