28

Re    0.00000   0.00000   0.00000
O     0.50904  -2.01853  -0.78190
O     1.62405  -3.83362  -0.13013
H     1.79504  -3.92207  -1.08187
N    -0.08443  -1.36308   1.75852
C     0.94535  -2.72249   0.11941
C     0.64594  -2.45512   1.53600
C     1.05987  -3.33973   2.54628
C     0.70412  -3.06904   3.83644
C    -0.11086  -1.95004   4.10793
C    -0.54379  -1.63374   5.40994
C    -1.34967  -0.55202   5.63408
C    -1.76595   0.25038   4.56047
C    -1.35649  -0.02087   3.28437
H    -1.68724   0.58906   2.45525
C    -0.50505  -1.11481   3.02125
C     0.36991   0.86473  -1.71189
O     0.67659   1.28319  -2.72704
C    -1.89428  -0.19608  -0.37043
O    -3.01048  -0.34092  -0.57860
C    -0.19935   1.73306   0.85889
O    -0.23579   2.74892   1.39100
H     1.66364  -4.18988   2.27568
H     1.02791  -3.70045   4.64997
H    -0.22709  -2.26829   6.22437
H    -1.67534  -0.31296   6.63476
H    -2.41661   1.09079   4.74635
O     1.61348  -0.02268   0.34446
