59

Pd    0.00000   0.00000   0.00000
P    -1.01633  -1.51390  -1.27970
P     1.30093   1.16086   1.38607
C    -0.38494  -3.11549  -0.63336
H    -1.13733  -3.49744   0.06928
H    -0.26685  -3.86036  -1.42369
C     0.90346  -2.84748   0.10484
C     1.74165  -3.91200   0.44055
C     2.91486  -3.65088   1.13010
H     3.57009  -4.47247   1.38527
C     3.26994  -2.36378   1.50086
C     2.41626  -1.30747   1.17847
C     1.22828  -1.53696   0.47441
C     1.39057  -5.32351   0.06895
H     2.11506  -6.01812   0.48711
H     1.38466  -5.45092  -1.01432
H     0.40201  -5.58831   0.44291
C     4.55688  -2.12549   2.23625
H     4.36660  -1.74900   3.24212
H     5.17140  -1.39237   1.71461
H     5.12200  -3.05038   2.32276
C     2.79444   0.10234   1.56086
H     3.54417   0.48478   0.85566
H     3.22616   0.16251   2.56255
C    -2.80708  -1.81556  -1.49201
H    -3.28633  -0.89604  -1.82314
H    -3.22198  -2.08981  -0.52147
H    -2.99171  -2.61743  -2.20680
C    -0.33614  -1.29950  -3.01572
C    -0.37091  -2.56967  -3.86112
H    -1.36611  -3.01107  -3.87603
H     0.33658  -3.30934  -3.49160
H    -0.09584  -2.33030  -4.88755
C     1.10803  -0.81379  -2.84181
H     1.70644  -1.55690  -2.30995
H     1.11871   0.13147  -2.26741
H     1.56694  -0.62999  -3.81307
C    -1.15982  -0.19017  -3.67360
H    -1.26777   0.65282  -2.98705
H    -2.15034  -0.54505  -3.95107
H    -0.66213   0.16476  -4.57516
C     1.98995   2.83991   1.16543
H     2.57993   3.14333   2.03020
H     1.17368   3.54069   0.99971
H     2.62267   2.83223   0.27719
C     0.43507   1.18910   3.05060
C    -0.33552  -0.13348   3.14268
H    -0.90202  -0.17968   4.07256
H     0.34812  -0.98469   3.10971
H    -1.04557  -0.21278   2.29818
C     1.37756   1.33959   4.24160
H     1.98087   0.44519   4.38327
H     0.79488   1.49465   5.14867
H     2.03978   2.19509   4.11948
C    -0.56455   2.34687   3.00336
H    -0.06081   3.30760   3.08905
H    -1.27708   2.26344   3.82303
H    -1.11980   2.32371   2.06272
O    -1.00184   1.25248  -0.38743
