58

Ru    0.00000   0.00000   0.00000
Cl   -1.16597  -1.58574  -1.43569
P     1.05883   0.34757  -2.04373
P     1.02038   1.50411   1.36976
P    -1.07108  -1.33889   1.55278
P    -1.84189   1.19927  -0.49966
C     2.45170   1.49191  -2.41275
C     1.81390  -1.17558  -2.71177
C    -0.06497   0.81713  -3.43035
C    -0.96428   2.00134  -3.08396
C    -2.18406   1.56711  -2.27633
C     2.57307   2.28477   0.79834
C     1.58194   1.02439   3.04571
C     0.02267   3.00038   1.79075
C    -0.68778   3.57148   0.56607
C    -2.01381   2.86852   0.28714
C    -0.99397  -1.14098   3.37845
C    -0.56406  -3.08784   1.44987
C    -2.89810  -1.48043   1.34844
C    -3.58499  -0.11766   1.29675
C    -3.50274   0.50681  -0.09286
H     2.14828   2.53076  -2.29504
H     2.77322   1.32835  -3.44180
H     3.28141   1.27421  -1.74406
H     1.11898  -2.00828  -2.61806
H     2.70863  -1.39712  -2.12986
H     2.07371  -1.01967  -3.75993
H    -0.67178  -0.05531  -3.68478
H     0.56760   1.05839  -4.29065
H    -1.30598   2.47605  -4.00926
H    -0.39345   2.74761  -2.52033
H    -2.96121   2.33949  -2.30579
H    -2.59572   0.64995  -2.70915
H     2.39106   2.87538  -0.09603
H     3.27762   1.48362   0.57703
H     2.97741   2.92410   1.58359
H     0.72771   0.86342   3.69752
H     2.20714   1.81614   3.45904
H     2.16031   0.10514   2.95787
H     0.70066   3.74202   2.22404
H    -0.70853   2.72208   2.55536
H    -0.03314   3.46970  -0.30618
H    -0.87825   4.63828   0.71909
H    -2.55663   2.73078   1.22800
H    -2.63504   3.48363  -0.37214
H     0.03669  -1.27974   3.69888
H    -1.61909  -1.89981   3.84998
H    -1.34069  -0.15225   3.67551
H     0.48181  -3.15707   1.75083
H    -0.65642  -3.43509   0.42184
H    -1.18891  -3.69082   2.11023
H    -3.27186  -2.06450   2.19573
H    -3.09710  -2.04036   0.43166
H    -4.63828  -0.23353   1.57088
H    -3.12137   0.55168   2.03104
H    -3.73389  -0.24985  -0.84796
H    -4.22382   1.32705  -0.19136
O     1.37801  -0.83072   0.36534
