58

I     0.32970  -2.76087  -0.37220
Mo    0.00000   0.00000   0.00000
P    -0.04696   2.38837   0.07433
O    -0.70620   3.05861   1.40494
C    -1.95881   2.79897   1.90658
C    -2.10485   2.78548   3.28909
H    -1.23579   2.93489   3.91179
C    -3.35755   2.59903   3.84427
H    -3.46816   2.58948   4.91832
C    -4.46431   2.42902   3.02868
H    -5.44103   2.28647   3.46488
C    -4.31386   2.44492   1.65255
H    -5.17233   2.31562   1.01123
C    -3.06411   2.62636   1.08518
H    -2.94570   2.64557   0.01146
O    -0.80682   3.06016  -1.15584
C    -0.58772   4.38548  -1.54868
C    -1.01053   6.72428  -1.31270
H    -1.49102   7.53857  -0.79131
C    -1.20611   5.42526  -0.87485
H    -1.83565   5.21771  -0.02207
C    -0.20383   6.97743  -2.40873
H    -0.05394   7.99244  -2.74442
C     0.41073   5.92897  -3.07315
H     1.04112   6.12147  -3.92768
C     0.22431   4.62653  -2.64480
H     0.69581   3.79658  -3.14875
O     1.28292   3.27399   0.05008
C     2.43049   2.94603   0.73903
C     3.63102   2.94991   0.04195
H     3.62664   3.17227  -1.01373
C     4.80504   2.66182   0.71423
H     5.74021   2.66660   0.17539
C     4.78230   2.36686   2.06796
H     5.70224   2.14623   2.58870
C     3.57978   2.36035   2.75436
H     3.55871   2.13470   3.81063
C     2.39880   2.64962   2.09285
H     1.45316   2.66699   2.61379
C    -1.71510   0.02801  -0.90383
O    -2.78584   0.07496  -1.32111
N     1.88826  -0.12011   0.75097
C     2.96336  -0.46645   0.97283
C     4.28986  -0.93281   1.22534
H     4.97190  -0.48153   0.50472
H     4.31405  -2.01816   1.11352
H     4.59804  -0.66166   2.23426
C    -0.07823  -0.23325   3.40339
H    -0.86670   0.12912   4.06786
H     0.84770   0.30391   3.61274
H     0.09135  -1.29193   3.61736
C    -0.48779  -0.09703   1.98643
C    -1.61039  -0.21688   1.31558
C    -3.00066  -0.62536   1.60040
H    -3.32238  -0.23609   2.56875
H    -3.03110  -1.71855   1.63602
H    -3.70320  -0.29794   0.83384
O     0.81522   0.39489  -1.37912
