27

Au    0.00000   0.00000   0.00000
Cl   -2.26919   0.00030   0.08222
S     2.34697   0.00073   0.26513
S     0.41503   0.00045   2.32620
N     3.06722   0.00045   2.84695
C     2.09084   0.00048   1.96773
C     4.45862   0.00043   2.38365
H     4.41656   0.00043   1.29062
C     5.18203  -1.26881   2.82498
H     5.32152  -1.30717   3.90216
H     6.16104  -1.29891   2.35543
H     4.62568  -2.14775   2.50974
C     2.84196   0.00046   4.29888
H     3.84009   0.00049   4.74129
C     2.12496  -1.26535   4.76163
H     1.09267  -1.27890   4.42757
H     2.13274  -1.29973   5.84754
H     2.62851  -2.15107   4.38295
C     5.18207   1.26966   2.82497
H     5.32156   1.30803   3.90215
H     6.16108   1.29972   2.35542
H     4.62576   2.14862   2.50971
C     2.12491   1.26629   4.76154
H     1.09265   1.27980   4.42742
H     2.13265   1.30072   5.84745
H     2.62848   2.15200   4.38283
O    -0.04784   0.00058  -1.64931
