31

Cd    0.00000   0.00000   0.00000
Br   -0.28819  -0.81012  -2.37218
N     1.54845   1.76682  -0.74324
N     2.32395  -0.68064   0.15048
N     0.17700  -2.29154   1.04554
C     1.17362   2.95311  -1.18758
H     0.24542   3.34211  -0.78319
C     1.91013   3.67758  -2.11720
H     1.56222   4.64022  -2.45595
C     3.08775   3.13030  -2.60016
H     3.68253   3.65810  -3.33066
C     3.48721   1.88876  -2.13369
H     4.39585   1.42711  -2.48846
C     2.68672   1.23202  -1.20043
C     3.04932  -0.09102  -0.69961
H     3.96538  -0.53665  -1.10541
C     2.62361  -1.99473   0.62274
H     2.89645  -1.90675   1.67999
H     3.46559  -2.45216   0.08129
C     1.38357  -2.89358   0.48066
H     1.20607  -3.05530  -0.58694
H     1.60176  -3.86675   0.95060
C    -0.99506  -3.06369   0.63454
H    -0.94746  -4.09637   1.00728
H    -1.06363  -3.08837  -0.45370
H    -1.89484  -2.59059   1.03119
C     0.23127  -2.24582   2.50430
H    -0.69319  -1.81055   2.88304
H     1.05708  -1.61738   2.83506
H     0.35025  -3.25122   2.93340
O    -1.02763   0.72538   1.06785
