49

Zr    0.00000   0.00000   0.00000
Cl    1.36392  -0.28465  -1.88666
N    -1.11674   1.42126  -0.82276
Cl   -1.52426  -1.80448  -0.36863
O     1.42857  -1.69525   0.81000
O    -1.13735   0.05026   1.89936
C    -0.71037   2.81277  -0.74584
H    -0.54447   3.07360   0.31123
H    -1.51432   3.46221  -1.13137
C     0.58155   3.09174  -1.53571
H     0.83317   4.14920  -1.48813
H     0.45903   2.80457  -2.58001
H     1.40752   2.51323  -1.11399
C    -1.82201   1.08912  -2.05577
H    -1.41334   0.15944  -2.49153
H    -1.69486   1.88807  -2.80144
C    -3.32252   0.88719  -1.79686
H    -3.84294   0.69322  -2.73165
H    -3.74646   1.77933  -1.33739
H    -3.47013   0.03795  -1.13196
C     2.84184  -1.41895   0.86355
H     3.00261  -0.46334   0.35057
H     3.39054  -2.19669   0.32361
C     3.31880  -1.31965   2.30839
H     4.39258  -1.15856   2.32738
H     3.09324  -2.23198   2.85837
H     2.83262  -0.47604   2.79397
C     1.14990  -3.10075   0.71737
H     0.10924  -3.22504   1.03821
H     1.80620  -3.64745   1.40750
C     1.30254  -3.62357  -0.70674
H     1.00910  -4.66895  -0.74450
H     2.32737  -3.53347  -1.05984
H     0.65735  -3.05345  -1.37542
C    -2.42649   0.67553   1.97380
H    -2.49554   1.23967   1.03271
H    -2.45128   1.37419   2.81934
C    -3.57016  -0.33098   2.05974
H    -4.50964   0.17044   1.84620
H    -3.64330  -0.78074   3.04730
H    -3.41346  -1.11585   1.32122
C    -0.70460  -0.60084   3.09923
H     0.18098  -1.17748   2.80507
H    -1.48042  -1.29527   3.44546
C    -0.31658   0.38266   4.19943
H     0.17859  -0.15187   5.00522
H    -1.18526   0.89006   4.61125
H     0.37048   1.12160   3.79068
O     0.97726   0.94767   0.93241
