57

Re    0.00000   0.00000   0.00000
P     1.63927   1.95810  -4.79661
N     2.44595   1.97653   0.47143
N     0.57951   0.44320  -3.12145
N     0.68851   0.73595  -4.37747
O     1.43633  -2.70067   0.48821
O    -2.81798  -1.14310  -0.61975
O    -0.82205   0.46102   2.95390
C     0.90730  -1.69945   0.29478
C    -1.75764  -0.79240  -0.38781
C    -0.49496   0.24203   1.88093
C     1.63556   1.15860   0.30307
C     3.37415   2.99500   0.69496
C     2.93849   4.30597   0.03191
C     1.67520   4.87466   0.66284
C     0.40929   0.07713  -2.03264
C     1.42171   2.12224  -6.57065
C     1.99144   3.20867  -7.22570
C     1.83174   3.33857  -8.59268
C     1.10554   2.39059  -9.29774
C     0.53463   1.31274  -8.63951
C     0.68956   1.17401  -7.27185
C     3.39165   1.63032  -4.42494
C     4.31554   1.29620  -5.40599
C     5.60137   0.94084  -5.03799
C     5.95641   0.89879  -3.69944
C     5.02706   1.21247  -2.71939
C     3.74445   1.57895  -3.07871
C     1.26326   3.53297  -3.97469
C    -0.02918   3.72072  -3.49908
C    -0.35912   4.89841  -2.85334
C     0.59555   5.88976  -2.70175
C     1.88416   5.70490  -3.18179
C     2.22688   4.52414  -3.81321
H     4.34032   2.66600   0.29548
H     3.46794   3.13309   1.77770
H     3.76204   5.01609   0.13342
H     2.76908   4.13363  -1.03327
H     1.42472   5.82574   0.20199
H     0.83252   4.20402   0.51704
H     1.81546   5.03399   1.72984
H     2.55055   3.94338  -6.66185
H     2.27069   4.17885  -9.10974
H     0.98242   2.49556 -10.36531
H    -0.03244   0.58005  -9.19366
H     0.25149   0.34603  -6.73559
H     4.02600   1.31997  -6.44763
H     6.32636   0.68874  -5.79754
H     6.95863   0.61305  -3.41751
H     5.30379   1.16035  -1.67672
H     3.00436   1.82152  -2.32578
H    -0.76678   2.93971  -3.61642
H    -1.35115   5.02423  -2.45154
H     0.33816   6.81045  -2.20033
H     2.62718   6.47892  -3.05411
H     3.23615   4.36242  -4.16888
O    -0.74456   1.45067  -0.25234
