61

Os    0.00000   0.00000   0.00000
Cl   -0.27191  -2.01252   1.06622
N     2.21109  -1.31500  -1.69813
N     3.06371  -1.07325  -2.67092
N     2.85779   0.16381  -3.03119
C     1.41154  -0.25049  -1.39541
C     1.86897   0.73156  -2.30671
C     1.41059   2.10628  -2.45456
C     2.30441   3.17359  -2.54594
H     3.36910   2.99460  -2.51014
C     1.83209   4.46982  -2.63921
H     2.53182   5.29026  -2.70106
C     0.46916   4.71836  -2.64663
H     0.10597   5.73248  -2.71993
C    -0.42436   3.66283  -2.55521
H    -1.48710   3.85134  -2.56323
C     0.03829   2.36401  -2.45484
H    -0.65407   1.53434  -2.40484
C     3.61276   0.71746  -4.11839
H     3.86712  -0.09162  -4.80094
H     4.53666   1.17098  -3.75513
H     3.01673   1.47005  -4.63162
C     2.18006  -2.64820  -1.14638
H     1.62111  -2.60434  -0.20632
H     3.20998  -2.96575  -0.97201
C     1.49634  -3.58553  -2.11118
C     2.18273  -4.63607  -2.70075
H     3.22310  -4.80233  -2.46035
C     1.53635  -5.47706  -3.59104
H     2.07478  -6.29792  -4.04224
C     0.20495  -5.26505  -3.90371
H    -0.29740  -5.92116  -4.59951
C    -0.48156  -4.21199  -3.32104
H    -1.52069  -4.04306  -3.55931
C     0.16031  -3.37516  -2.42704
H    -0.37053  -2.55707  -1.96207
C     1.89002  -1.11978   3.55419
H     1.68101  -1.14633   4.62057
H     2.96335  -1.03214   3.39938
H     1.55762  -2.05966   3.11299
C     1.16049   0.00563   2.89307
C     1.61744   0.51343   1.65923
H     2.60085   0.20795   1.31357
C     0.98634   1.64287   1.06979
H     1.54033   2.24745   0.34847
C    -0.13870   2.22763   1.70558
C    -0.62813   1.63581   2.85447
H    -1.50916   2.03846   3.33367
C     0.02340   0.55335   3.45287
H    -0.36083   0.15714   4.38118
C    -0.77619   3.46219   1.10986
H    -0.16457   3.78438   0.25704
C    -0.82152   4.60981   2.12033
H    -1.21695   5.50702   1.64878
H     0.17744   4.82659   2.49390
H    -1.45721   4.36048   2.96631
C    -2.17928   3.13498   0.59166
H    -2.60894   3.99734   0.08599
H    -2.83748   2.85528   1.41166
H    -2.14285   2.30607  -0.11606
O    -1.33406  -0.32436  -0.91519
