58

Re    0.00000   0.00000   0.00000
O     0.59334   1.49857   0.41790
Cl   -2.09398   0.72430  -0.58421
As   -1.00087   0.04507   2.26371
C    -2.70285  -0.82093   2.63513
C    -3.14828  -0.77447   3.95592
H    -2.54202  -0.26683   4.70394
C    -4.34838  -1.36981   4.30084
H    -4.69317  -1.33675   5.32402
C    -5.10754  -2.00642   3.33036
H    -6.04507  -2.46928   3.60068
C    -4.66783  -2.04630   2.01833
H    -5.26352  -2.53840   1.26400
C    -3.46527  -1.45382   1.66589
H    -3.11536  -1.47999   0.64272
C    -1.26311   1.78965   3.08733
C    -1.90201   2.76873   2.33432
H    -2.21214   2.53530   1.32051
C    -2.11936   4.02438   2.87400
H    -2.61129   4.78520   2.28642
C    -1.70046   4.30646   4.16450
H    -1.86604   5.28777   4.58378
C    -1.06349   3.33353   4.91680
H    -0.73314   3.55589   5.92101
C    -0.84234   2.07488   4.38226
H    -0.33426   1.31095   4.96447
C     0.26931  -0.83716   3.43665
C     0.05095  -2.09274   3.99174
H    -0.92396  -2.55813   3.88891
C     1.07940  -2.74241   4.65554
H     0.91073  -3.72115   5.07941
C     2.32502  -2.14701   4.76157
H     3.12629  -2.66215   5.26976
C     2.54968  -0.89459   4.20943
H     3.52297  -0.43290   4.28638
C     1.52729  -0.24481   3.54363
H     1.69102   0.72608   3.08049
N     1.82685  -1.12502   0.50162
O    -0.68263  -2.07668   0.53420
O     4.15698   1.47252   0.38171
O     2.59597   0.96030  -1.14143
H     2.72526   1.86719  -1.46432
C     3.05469  -0.63359   0.51145
C     4.14685  -1.36226   1.01978
H     5.11283  -0.88314   1.02461
C     3.95800  -2.63573   1.47414
H     4.78035  -3.21891   1.86061
C     2.66693  -3.20606   1.43188
C     2.36890  -4.50503   1.85547
H     3.16593  -5.13330   2.22085
C     1.07217  -4.96791   1.79781
H     0.85313  -5.97578   2.11951
C     0.03078  -4.17202   1.34645
H    -0.98266  -4.54190   1.32573
C     0.26389  -2.86439   0.91650
C     1.61668  -2.38130   0.93671
C     3.32567   0.71938  -0.05400
O     0.12801  -0.74500  -1.46666
