58

Re    0.00000   0.00000   0.00000
O     0.58095   1.54200   0.20584
Cl    0.46036  -0.73641  -2.10225
P    -0.85107   0.03057   2.31720
C    -1.02714   1.70463   2.99943
C    -1.59243   2.66968   2.17028
H    -1.86952   2.40231   1.15889
C    -1.77702   3.95705   2.63937
H    -2.21056   4.70622   1.99452
C    -1.39888   4.28642   3.93156
H    -1.53761   5.29357   4.29557
C    -0.83468   3.32714   4.75615
H    -0.53467   3.58510   5.76127
C    -0.64747   2.03570   4.29586
H    -0.19574   1.29290   4.93926
C     0.37440  -0.78785   3.36862
C     1.61277  -0.16095   3.51142
H     1.76549   0.81473   3.06709
C     2.63047  -0.79060   4.20084
H     3.58617  -0.30087   4.31124
C     2.42508  -2.05344   4.73682
H     3.22368  -2.54916   5.26791
C     1.20011  -2.68222   4.58846
H     1.04402  -3.66762   5.00097
C     0.17321  -2.05470   3.90459
H    -0.78169  -2.54590   3.78155
C    -2.43675  -0.75845   2.71883
C    -3.18093  -1.46084   1.77979
H    -2.82774  -1.54506   0.76397
C    -4.38016  -2.04433   2.15316
H    -4.95894  -2.58784   1.42160
C    -4.83902  -1.92830   3.45400
H    -5.77585  -2.38280   3.74057
C    -4.09837  -1.22358   4.39103
H    -4.45671  -1.12869   5.40554
C    -2.90130  -0.63729   4.02787
H    -2.32462  -0.08277   4.75523
N     1.90627  -1.03107   0.58494
O    -0.52624  -1.96147   0.39196
O     4.00805   1.68627   0.87660
O     2.82340   1.12687  -0.94309
H     2.89146   2.06131  -1.19886
C     3.11594  -0.51493   0.68815
C     4.19808  -1.25368   1.20192
H     5.15451  -0.76225   1.28193
C     4.01746  -2.55671   1.57471
H     4.83536  -3.14443   1.96377
C     2.74117  -3.14488   1.44500
C     2.42589  -4.46728   1.78707
H     3.20398  -5.11096   2.16635
C     1.13873  -4.93061   1.63358
H     0.90970  -5.95372   1.89386
C     0.11244  -4.12039   1.15957
H    -0.89117  -4.50203   1.05599
C     0.36784  -2.79772   0.81160
C     1.70923  -2.31096   0.94196
C     3.35846   0.89425   0.24632
O    -1.51848   0.37228  -0.52737
