54

Au    0.00000   0.00000   0.00000
S     5.60309   4.74072   2.41796
S     4.58106   3.20122   5.33465
P     2.14507  -0.45949   0.50337
C     3.32445   0.81416   0.06216
C     3.68331   1.49459   1.20520
C     3.24726   0.83922   2.44717
C     2.55830  -0.33629   2.24270
C     5.44721   4.70991   0.70097
H     5.84976   5.52251   0.12957
C     4.79747   3.61298   0.24519
H     4.58726   3.44229  -0.79412
C     4.40347   2.73289   1.28839
C     4.75735   3.23809   2.53815
C     4.33981   2.60986   3.72848
C     3.55523   1.45815   3.70468
C     3.12515   1.09963   5.01032
H     2.47560   0.27065   5.22094
C     3.60038   1.93169   5.96685
H     3.43212   1.88486   7.02438
C     3.71988   0.96578  -1.32541
C     5.05758   1.17146  -1.67241
H     5.79922   1.26822  -0.89260
C     5.43520   1.22091  -3.00003
H     6.47312   1.37946  -3.25375
C     4.49268   1.06014  -4.00307
H     4.79153   1.10386  -5.03942
C     3.16700   0.83198  -3.66979
H     2.42799   0.69628  -4.44510
C     2.78557   0.77629  -2.34423
H     1.74753   0.60568  -2.08051
C     2.14953  -1.39466   3.14633
C     0.92224  -2.03369   2.96650
H     0.24606  -1.66774   2.20159
C     0.55715  -3.09759   3.76687
H    -0.40202  -3.57158   3.62203
C     1.41839  -3.55464   4.75168
H     1.13275  -4.38526   5.37916
C     2.65275  -2.94770   4.92030
H     3.33633  -3.31244   5.67295
C     3.02091  -1.88056   4.12462
H     3.99591  -1.42902   4.23772
C     2.78138  -2.03721  -0.09599
C     1.92971  -2.91939  -0.74898
H     0.89308  -2.64688  -0.90202
C     2.41905  -4.13389  -1.19591
H     1.76139  -4.82412  -1.70256
C     3.74948  -4.46144  -0.99248
H     4.12846  -5.41014  -1.34215
C     4.59820  -3.57744  -0.34246
H     5.63498  -3.83780  -0.18852
C     4.11928  -2.36366   0.10922
H     4.76767  -1.66312   0.61823
O    -1.57771   0.23895  -0.41982
