37

C    -0.36562   3.08100  -1.13116
C    -0.83972   4.30024  -1.65748
H    -1.20365   5.05839  -0.98057
C    -0.92121   4.53720  -3.00380
H    -1.31635   5.47346  -3.36713
C    -0.49389   3.55703  -3.90292
H    -0.53764   3.74438  -4.96576
C    -0.03769   2.35726  -3.43679
H     0.28446   1.57642  -4.10845
C     0.02182   2.05704  -2.05045
C    -0.30133   2.92962   0.30288
C    -0.10491   4.18795   1.11291
H    -1.05044   4.54381   1.52393
H     0.32377   4.97188   0.49750
H     0.57896   3.99722   1.93831
C    -0.49053   1.71788   2.35091
H     0.52220   1.69885   2.77963
H    -1.01359   2.59645   2.74508
C    -1.25147   0.48235   2.81541
H    -2.28736   0.51347   2.46899
H    -1.23337   0.40163   3.90312
C     1.25015  -1.03053   2.85751
C     1.35013  -1.24976   4.22485
H     0.46685  -1.49455   4.79867
C     2.58498  -1.15439   4.84205
H     2.66688  -1.31951   5.90606
C     3.71401  -0.85778   4.09501
H     4.67629  -0.78935   4.57976
C     3.61153  -0.65848   2.72778
H     4.49203  -0.43595   2.14435
C     2.37930  -0.74560   2.10292
H     2.28798  -0.60310   1.02818
N    -0.40917   1.77958   0.89973
O     0.49410   0.90252  -1.73171
Pt    0.00000   0.00000   0.00000
Se   -0.48138  -1.14947   1.99611
O     0.39316  -1.45529  -0.67087
