31

Hg    0.00000   0.00000   0.00000
Br    1.45017  -1.86765  -0.66422
C     4.30530   1.72569   3.45096
C     3.69534   1.98765   2.24040
C     2.45654   1.44249   1.91640
N     1.83755   1.73933   0.64256
C     2.79852   1.65316  -0.46500
C     1.26059   3.08764   0.68293
C     3.67268   0.91058   4.37097
C     2.43970   0.36909   4.06660
C     1.81667   0.61715   2.84713
N     0.52179   0.04005   2.55708
C     0.45547  -1.37491   2.94608
C    -0.51807   0.79043   3.26983
H     5.26768   2.15997   3.67371
H     4.19700   2.63200   1.53566
H     3.51658   2.47934  -0.46503
H     3.34013   0.71035  -0.40566
H     2.25501   1.68973  -1.41156
H     0.53065   3.15595   1.48702
H     2.03308   3.84847   0.84515
H     0.75595   3.29642  -0.26005
H     4.13322   0.69847   5.32351
H     1.95444  -0.25875   4.79727
H     1.31706  -1.90482   2.54289
H     0.42632  -1.51225   4.03162
H    -0.45505  -1.81527   2.53402
H    -0.37840   0.73431   4.35573
H    -0.49425   1.83601   2.96947
H    -1.49727   0.38209   3.02105
O    -1.33206   0.97240  -0.05048
