31

Zn    0.00000   0.00000   0.00000
I    -2.04770   1.29931  -0.69178
C     3.74669   1.20221   3.62311
C     3.29356   1.55319   2.36726
C     2.06224   1.11045   1.89465
N     1.59613   1.48790   0.57779
C     2.66279   1.40046  -0.42900
C     1.09533   2.86602   0.61559
C     2.96311   0.40257   4.43489
C     1.73638  -0.03828   3.98077
C     1.27111   0.30143   2.71453
N    -0.01866  -0.16286   2.25136
C    -0.24739  -1.57492   2.58693
C    -1.07664   0.64618   2.86597
H     4.70736   1.55463   3.96494
H     3.91240   2.18065   1.74542
H     3.38719   2.21517  -0.34066
H     3.18716   0.45146  -0.33286
H     2.21922   1.45642  -1.42449
H     0.28115   2.95372   1.33240
H     1.88553   3.56872   0.90256
H     0.71969   3.14544  -0.36820
H     3.30428   0.12035   5.41874
H     1.13333  -0.65871   4.62477
H     0.62591  -2.16682   2.31986
H    -0.46231  -1.72120   3.64924
H    -1.10524  -1.94123   2.02051
H    -1.06187   0.55664   3.95785
H    -0.95142   1.69527   2.60555
H    -2.04835   0.31463   2.50179
O     0.79663  -1.33608  -0.55024
