40

Au    0.00000   0.00000   0.00000
Cl    0.89588  -0.66885  -1.99814
Cl   -0.93170   0.83224   1.90496
N    -1.88878  -0.17999  -1.00810
H    -1.54632  -0.31995  -1.96414
C    -2.63274  -1.41351  -0.65621
H    -3.43772  -1.53834  -1.39289
C    -3.24770  -1.36530   0.73865
H    -3.92150  -0.51367   0.83357
H    -2.45892  -1.24835   1.48125
C    -4.02228  -2.65433   1.00887
H    -4.44803  -2.61309   2.01189
H    -4.84848  -2.74013   0.29826
C    -3.11292  -3.87081   0.87811
H    -3.68453  -4.78324   1.05427
H    -2.32533  -3.81629   1.63187
C    -2.48325  -3.91185  -0.50989
H    -3.26449  -4.03017  -1.26447
H    -1.80816  -4.76429  -0.59147
C    -1.70819  -2.62391  -0.77679
H    -0.89933  -2.53538  -0.04494
H    -1.25453  -2.65344  -1.76940
C    -2.64480   1.09138  -0.99214
H    -2.89130   1.31055   0.05074
C    -3.92640   1.02257  -1.82869
H    -4.60154   0.26186  -1.43556
H    -3.67125   0.76083  -2.85893
C    -4.64741   2.36924  -1.80713
H    -4.94417   2.60039  -0.78213
H    -5.55368   2.30029  -2.41124
C    -3.74869   3.48006  -2.33541
H    -3.49795   3.28383  -3.38008
H    -4.27346   4.43506  -2.29036
C    -2.47092   3.54858  -1.50790
H    -2.71501   3.80367  -0.47506
H    -1.80967   4.32302  -1.89812
C    -1.74916   2.20464  -1.53537
H    -1.45305   1.96570  -2.56031
H    -0.83862   2.27211  -0.93235
O     1.48867   0.09055   0.70582
