24

Au    0.00000   0.00000   0.00000
N    -0.29295   0.28703  -2.19558
H    -0.00819  -0.61118  -2.58539
C     0.64749   1.29826  -2.71860
H     0.52014   1.39652  -3.80508
C     0.40334   2.65337  -2.06711
H    -0.56482   3.06191  -2.34431
H     1.16955   3.35625  -2.38211
H     0.44475   2.55860  -0.98320
C     2.07229   0.82395  -2.45418
H     2.24864   0.73266  -1.38358
H     2.78470   1.53599  -2.86125
H     2.25461  -0.14391  -2.91806
C    -1.71410   0.47094  -2.54939
H    -2.05151   1.39572  -2.07192
C    -1.94608   0.56411  -4.05847
H    -1.54113   1.48254  -4.47516
H    -3.01311   0.55140  -4.26223
H    -1.49236  -0.28463  -4.56817
C    -2.51619  -0.69498  -1.98079
H    -2.21803  -1.63092  -2.45025
H    -3.57684  -0.54285  -2.15957
H    -2.35968  -0.78153  -0.90671
O     0.22545  -0.19393   1.62298
