26

Au    0.00000   0.00000   0.00000
Cl   -1.56633   1.60017   0.09281
Cl   -0.67251  -0.88183   2.00506
N     1.44210  -1.58953   0.01382
H     1.28185  -1.92557   0.96895
C     2.83542  -1.09532  -0.04871
H     2.97988  -0.65903  -1.04061
C     3.84169  -2.22002   0.19052
H     3.63373  -2.72269   1.13332
H     4.84143  -1.79845   0.24412
H     3.83466  -2.95250  -0.61137
C     3.02288  -0.01121   1.00604
H     2.38369   0.84675   0.80429
H     4.05287   0.33495   1.00187
H     2.78850  -0.39299   1.99809
C     1.10549  -2.72339  -0.88365
H     1.71124  -3.58293  -0.56785
C     1.40135  -2.41117  -2.34357
H     0.93411  -1.47584  -2.63653
H     1.00296  -3.20733  -2.96655
H     2.46827  -2.33762  -2.53380
C    -0.36083  -3.09340  -0.69505
H    -0.60140  -3.22355   0.35753
H    -0.57561  -4.02298  -1.21584
H    -1.00744  -2.31782  -1.10389
O     0.58050   0.68179  -1.38589
