33

Au    0.00000   0.00000   0.00000
C    -1.37112   0.30868   1.44665
N    -2.23163   1.33566   1.63436
C    -2.38550   2.45631   0.87228
H    -1.73930   2.53311   0.01126
C    -3.30649   3.38380   1.21878
H    -3.42852   4.26903   0.61750
C    -4.11813   3.20031   2.37320
H    -4.84507   3.95512   2.62622
C    -3.97501   2.08984   3.14094
H    -4.57077   1.91549   4.02222
C    -3.01001   1.12312   2.77477
C    -2.59524  -0.07983   3.28713
H    -2.92076  -0.62163   4.15036
N    -1.61066  -0.53677   2.46199
C    -0.90790  -1.76097   2.63476
C     0.27572  -1.76076   3.37141
C     0.80281  -0.48831   3.95975
H     1.07334   0.20744   3.16453
H     1.68671  -0.68316   4.56009
H     0.05367  -0.00501   4.58700
C     0.95293  -2.96279   3.51863
H     1.87488  -2.98393   4.07956
C     0.46317  -4.12297   2.94714
H     1.00438  -5.04917   3.06503
C    -0.71178  -4.10117   2.21810
H    -1.08477  -5.00791   1.76666
C    -1.41744  -2.91863   2.04844
C    -2.67670  -2.86763   1.23914
H    -2.96488  -3.86464   0.91896
H    -2.52650  -2.25113   0.35204
H    -3.49594  -2.43447   1.81302
O     1.12799  -0.28082  -1.17102
