26

Au    0.00000   0.00000   0.00000
Br   -1.98684   0.66891   1.20053
Br   -1.36707  -0.98648  -1.79680
N     1.75100  -0.73246  -1.13645
H     1.28351  -1.02745  -1.99875
C     2.67197   0.36222  -1.51472
H     3.11216   0.76078  -0.59618
C     3.77899  -0.11990  -2.45093
H     3.35570  -0.62652  -3.31664
H     4.47187  -0.78900  -1.94863
H     4.34436   0.73810  -2.80297
C     1.86638   1.46063  -2.20009
H     1.37427   1.08033  -3.09398
H     2.52270   2.27708  -2.48677
H     1.10670   1.87111  -1.53534
C     2.36680  -1.96229  -0.57853
H     3.05494  -2.35767  -1.33681
C     1.28037  -3.00697  -0.34867
H     0.59610  -2.68903   0.43827
H     1.73333  -3.94391  -0.03670
H     0.70537  -3.18991  -1.25410
C     3.14534  -1.70798   0.70379
H     3.93008  -0.97035   0.56504
H     3.60823  -2.63722   1.02506
H     2.49137  -1.36643   1.50041
O     0.91580   0.81903   1.10137
