20

Au    0.00000   0.00000   0.00000
S    -0.93295   0.40041   2.10833
N     1.70416   0.26632   2.63001
N     0.45321   0.78683   4.35280
C     0.45238   0.48416   3.05172
C     1.79180   0.70457   4.91166
C     2.68220   0.49786   3.67393
C    -0.72140   0.93545   5.17288
C    -1.18326  -0.39256   5.76540
H     1.92933   0.13705   1.65236
H     2.02940   1.62466   5.45211
H     1.86168  -0.13671   5.60920
H     3.34810  -0.36242   3.77383
H     3.28607   1.38295   3.44790
H    -0.48853   1.65062   5.96590
H    -1.50963   1.34804   4.53955
H    -2.08199  -0.23696   6.35422
H    -0.41869  -0.82189   6.40846
H    -1.40927  -1.09429   4.96697
O     0.88503  -0.26611  -1.36690
