36

Re    0.00000   0.00000   0.00000
O    -0.25754   2.19433  -2.16864
O     3.09145  -0.00289  -0.10418
N    -0.06231   1.30964   1.68723
C    -0.03488   2.70902   1.66719
C    -0.89449   3.40562   0.81926
H    -1.60208   2.85607   0.21611
C    -0.86649   4.78574   0.79495
H    -1.54154   5.31987   0.14403
C     0.02366   5.48211   1.59739
H     0.05129   6.56061   1.56588
C     0.88041   4.79234   2.43928
H     1.57878   5.33033   3.06275
C     0.84721   3.41178   2.48712
H     1.53165   2.86910   3.12444
C    -0.15673   0.71125   2.83180
H    -0.26214   1.26215   3.76269
C    -0.13046   1.38150  -1.37560
C     1.94360  -0.00185  -0.09132
N    -0.06272  -1.30989   1.68728
C    -0.03488  -2.70923   1.66730
C    -0.89432  -3.40607   0.81941
H    -1.60206  -2.85669   0.21631
C    -0.86592  -4.78617   0.79508
H    -1.54082  -5.32048   0.14414
C     0.02449  -5.48230   1.59743
H     0.05247  -6.56079   1.56585
C     0.88108  -4.79230   2.43930
H     1.57964  -5.33012   3.06271
C     0.84746  -3.41175   2.48718
H     1.53173  -2.86890   3.12454
C    -0.15683  -0.71140   2.83182
H    -0.26195  -1.26222   3.76280
O    -0.26325  -2.19292  -2.16943
C    -0.13369  -1.38036  -1.37662
O    -1.64276   0.00043   0.15440
