32

Re    0.00000   0.00000   0.00000
O     1.75705  -2.44226  -0.69910
O     2.19676   1.18348   1.81924
O     0.68314   1.69133  -2.49525
N    -1.55506   1.35177   0.73507
N    -4.01792  -0.96619  -0.63425
H    -4.95354  -0.80929  -0.30030
N    -1.81622  -0.77057  -0.84423
C     1.14320  -1.49975  -0.48818
C     1.42281   0.75345   1.09380
C    -1.37261   2.41275   1.51063
H    -0.35848   2.78270   1.58610
C    -2.40175   3.02950   2.20185
H    -2.19405   3.88130   2.82869
C    -3.68905   2.52561   2.08049
H    -4.51259   2.97507   2.61374
C    -3.89602   1.43119   1.26312
H    -4.88237   1.00978   1.14486
C    -2.80542   0.86388   0.60670
C    -2.89905  -0.28374  -0.26559
C    -3.62011  -1.96384  -1.48902
C    -4.31689  -2.95830  -2.15817
H    -5.38580  -3.06445  -2.05483
C    -3.57776  -3.80544  -2.95791
H    -4.08071  -4.59600  -3.49361
C    -2.19206  -3.66921  -3.09378
H    -1.66245  -4.35909  -3.73247
C    -1.49152  -2.68358  -2.43465
H    -0.42371  -2.56926  -2.53335
C    -2.21925  -1.82232  -1.61730
C     0.44940   1.05489  -1.56669
O    -0.54382  -0.83990   1.31199
