32

C     0.12400  -1.20980   1.66203
H    -0.32243  -2.19853   1.49771
H    -0.33805  -0.75657   2.54800
H     1.19079  -1.35967   1.88423
C    -1.93539   1.18858   0.26770
C    -1.38302   1.53596  -0.99414
C    -1.36730   0.36717  -1.80552
C    -1.90924  -0.70387  -1.04603
C    -2.26653  -0.20036   0.24150
C    -2.20137   2.15515   1.38498
H    -1.30667   2.73945   1.60874
H    -2.50503   1.63261   2.28969
H    -2.99867   2.84637   1.10464
C    -0.98906   2.91793  -1.42411
H    -1.83923   3.42306  -1.88925
H    -0.17515   2.88719  -2.14903
H    -0.66574   3.51048  -0.56906
C    -0.96327   0.29151  -3.24795
H    -1.82848   0.47685  -3.88943
H    -0.56679  -0.69500  -3.48641
H    -0.20178   1.03503  -3.48283
C    -2.13402  -2.09348  -1.56769
H    -2.48713  -2.75530  -0.77991
H    -1.20791  -2.50456  -1.97513
H    -2.87998  -2.08111  -2.36447
C    -3.10067  -0.91871   1.26404
H    -2.90378  -0.54970   2.26889
H    -2.91086  -1.99022   1.25101
H    -4.15971  -0.75957   1.04694
Cl    1.36957  -1.11520  -1.24374
Ti    0.00000   0.00000   0.00000
O     0.99041   1.20189   0.54503
