32

Hg    0.00000   0.00000   0.00000
Br    0.86217   0.28165   2.26955
S     0.14225  -2.70490  -0.85318
N    -1.77502  -1.69714  -2.38393
H    -2.15353  -1.48731  -3.30855
N    -2.19650  -1.00149  -1.32326
N    -2.43633   0.75230   0.68342
N    -0.26224  -3.05788  -3.43817
H    -0.69839  -2.75805  -4.30048
C    -0.64515  -2.45801  -2.30473
C    -3.18365  -0.19077  -1.38051
C    -3.47626   0.51657  -0.12647
C    -4.77005   0.90891   0.21157
H    -5.59877   0.68169  -0.44030
C    -4.98316   1.56112   1.41369
H    -5.97844   1.86891   1.69794
C    -3.90048   1.80470   2.24172
H    -4.01738   2.31217   3.18536
C    -2.64687   1.37552   1.83153
H    -1.77606   1.54136   2.45159
C     1.01247  -3.73020  -3.59017
H     0.87861  -4.53816  -4.31303
H     1.27611  -4.15665  -2.62157
C     2.09588  -2.76276  -4.05375
H     3.04554  -3.28279  -4.13286
H     2.20218  -1.95216  -3.33729
H     1.84803  -2.33608  -5.02321
C    -3.97830   0.09145  -2.62130
H    -3.29970   0.41315  -3.41393
H    -4.69332   0.88943  -2.45507
H    -4.51046  -0.80004  -2.95600
O     0.11819   0.68263  -1.49751
