33

Zn    0.00000   0.00000   0.00000
Br    2.37930   0.10830  -0.53332
S    -0.63770  -1.07672   2.33131
O    -0.74503  -1.08899  -1.68931
N     0.16539  -1.34777  -2.54541
N     0.57170  -2.53226  -0.02498
N     0.56558  -3.15825   1.15298
H     1.00166  -4.07644   1.24359
N     0.11073  -3.33731   3.38938
H     0.56562  -4.23877   3.37113
C     0.18359  -0.64078  -3.69026
H    -0.60128   0.09709  -3.77240
C     1.15749  -0.81774  -4.64013
H     1.14567  -0.21074  -5.53024
C     2.15426  -1.75889  -4.41836
H     2.95137  -1.90041  -5.12894
C     2.11236  -2.49938  -3.25519
H     2.89581  -3.20727  -3.04241
C     1.10743  -2.30135  -2.31240
C     1.07185  -3.07384  -1.07205
C     0.05252  -2.58629   2.28078
C    -0.36728  -2.87238   4.67646
H     0.19563  -1.97778   4.96521
H    -1.41650  -2.57856   4.57133
C    -0.21423  -3.96560   5.71759
H    -0.78544  -4.84777   5.43665
H    -0.58349  -3.61065   6.67482
H     0.83124  -4.24243   5.83686
C     1.65746  -4.46251  -1.09383
H     2.65336  -4.46240  -0.64882
H     1.72965  -4.83170  -2.11126
H     1.02291  -5.15318  -0.53696
O    -1.01763   1.27442  -0.25057
