48

Ti    0.00000   0.00000   0.00000
Cl    0.81943  -1.89471   0.68971
O     1.27674   0.71741  -0.79864
C    -0.41757   2.10154   0.70800
C    -1.66100   1.43392   0.56149
H    -2.47353   1.73782  -0.08745
C    -1.71426   0.38925   1.51655
H    -2.57706  -0.23305   1.72242
C    -0.51908   0.41745   2.26082
H    -0.29085  -0.19651   3.12315
C     0.28854   1.46466   1.76094
H     1.23678   1.79237   2.17378
C     2.01854   1.80119  -1.00669
C     3.30620   1.67611  -1.57352
C     4.04308   2.83424  -1.76975
H     5.02734   2.78147  -2.20293
C     3.54464   4.07803  -1.42140
H     4.14208   4.96138  -1.58710
C     2.28583   4.18940  -0.86568
H     1.89624   5.16139  -0.60008
C     1.50402   3.06417  -0.64992
C    -0.83122   3.52871  -1.28976
C    -1.60829   4.67779  -1.33059
H    -1.55251   5.39275  -0.52172
C    -2.46115   4.91263  -2.39604
H    -3.06171   5.81013  -2.41442
C    -2.54517   3.99909  -3.43170
H    -3.21247   4.18005  -4.26102
C    -1.76928   2.85155  -3.40014
H    -1.83040   2.13279  -4.20326
C    -0.91427   2.61703  -2.33808
H    -0.31153   1.71348  -2.32822
C     0.09145   3.25999  -0.11588
H     0.10611   4.15434   0.52334
C     3.84412   0.29049  -1.91215
C     2.87775  -0.44870  -2.85400
H     1.93479  -0.70042  -2.36020
H     3.33567  -1.37696  -3.18907
H     2.66273   0.16448  -3.72778
C     5.20903   0.35586  -2.60686
H     5.14782   0.91243  -3.53909
H     5.54077  -0.65379  -2.83814
H     5.95858   0.81159  -1.96456
C     4.01344  -0.49652  -0.60280
H     4.71463   0.01552   0.05426
H     4.40107  -1.49015  -0.81597
H     3.06165  -0.60692  -0.07835
O    -0.90459  -0.64166  -1.22167
