60

Zr    0.00000   0.00000   0.00000
C     1.75773  -0.94932  -1.73069
C     1.73130   0.45379  -1.81986
C     2.18956   0.97821  -0.58147
C     2.49320  -0.11855   0.25926
C    -0.74037   1.81331   1.07894
Si    0.43442   3.16581   1.73269
C     1.06250   4.46104   0.46358
C    -0.51659   4.20222   3.03828
C     1.88941   2.29140   2.62054
C    -1.95845   2.42516   0.51834
C    -1.90144   3.06329  -0.74899
C    -0.77777   2.91352  -1.59897
C    -0.70843   3.52919  -2.81469
C    -1.76773   4.34382  -3.26064
C     2.20076  -1.30292  -0.44355
C    -2.12988  -0.07313  -1.31058
C    -2.44010  -0.66125  -0.05894
C    -1.74389  -1.88229   0.02940
C    -0.98876  -2.04666  -1.14689
C    -1.23497  -0.93254  -1.98289
C    -2.88411   4.48035  -2.49494
C    -3.00059   3.83292  -1.23774
C    -4.16219   3.92058  -0.48004
C    -4.28624   3.22830   0.72114
C    -5.49976   3.28373   1.45357
C    -5.64707   2.62056   2.63166
C    -4.57741   1.85960   3.13733
C    -3.39373   1.78984   2.46339
C    -3.18687   2.46738   1.23387
H     1.58316  -1.63474  -2.54912
H     1.56009   1.02198  -2.72638
H     2.47677   2.00507  -0.39902
H     2.97234  -0.06863   1.22736
H     2.39196  -2.30809  -0.08854
H    -2.63622   0.77459  -1.75288
H    -3.19066  -0.30939   0.63779
H    -1.83963  -2.60824   0.82653
H    -0.43581  -2.93933  -1.41533
H    -0.92192  -0.82427  -3.01447
H    -1.01102   1.27312   1.99844
H     1.64764   4.05003  -0.35196
H     0.22996   5.00110   0.02475
H     1.68670   5.18752   0.97462
H    -1.40722   4.64797   2.60490
H    -0.83647   3.58867   3.87512
H     0.09299   5.00725   3.43652
H     1.65045   1.25085   2.83020
H     2.81041   2.32270   2.04837
H     2.09117   2.77492   3.57045
H     0.03381   2.26987  -1.25977
H     0.15669   3.39549  -3.44837
H    -1.69192   4.83688  -4.21835
H    -3.71766   5.07676  -2.83722
H    -4.98674   4.52197  -0.83438
H    -6.31244   3.86545   1.04204
H    -6.57607   2.66655   3.18059
H    -4.70108   1.32568   4.06809
H    -2.60608   1.18168   2.88539
O     0.17109  -0.70824   1.48041
