46

Zn    0.00000   0.00000   0.00000
F    -2.17851   2.48485  -0.32621
F    -0.54294   3.11371   0.92672
F    -2.54353   3.80826   1.33760
F    -4.04659   0.09809   5.11502
F    -2.27575  -1.10185   5.32229
F    -3.88724  -1.76604   4.05781
F    -1.69545  -0.78551  -2.72976
F    -1.60816  -2.79052  -3.52070
F    -3.23015  -5.59048   0.93002
F    -1.71338  -5.11334   2.37572
N    -1.70973  -0.47454   2.42365
N    -1.37931   0.44534   1.53086
N    -1.42321  -2.46524   0.96021
N    -1.05114  -1.82275  -0.13584
C    -2.04151   1.55979   1.81316
C    -2.84207   1.36980   2.93735
H    -3.49323   2.07168   3.41583
C    -2.59591   0.05238   3.29241
C    -1.83276   2.75396   0.93911
C    -3.19843  -0.68847   4.44713
C    -1.45495  -2.52204  -1.18853
C    -2.12067  -3.67293  -0.77260
H    -2.56334  -4.43903  -1.37486
C    -2.07491  -3.59259   0.61076
C    -1.15030  -1.99591  -2.55386
C    -2.64738  -4.58027   1.58134
B    -1.09187  -1.89122   2.35780
H    -1.48969  -2.58030   3.21769
F     3.24220  -0.64122  -0.32437
F     2.96628   1.08910   0.92874
F     4.56923  -0.29461   1.34047
F     2.10881  -3.45872   5.11253
F     0.18218  -2.52937   5.31989
F     0.41745  -4.25360   4.05157
F     0.17065  -1.86240  -2.72838
F    -3.57777  -4.03552   2.37213
N     0.44393  -1.71782   2.42371
N     1.07513  -0.97021   1.53203
C     2.37137  -0.98652   1.81427
C     2.60737  -1.77644   2.93727
H     3.54087  -1.98988   3.41540
C     1.34352  -2.22287   3.29169
C     3.30099  -0.20744   0.94110
C     1.00361  -3.11801   4.44427
O     0.55800   0.96650  -1.21532
