29

Pd    0.00000   0.00000   0.00000
Cl   -1.01999   0.66013   1.86038
S    -2.08106  -0.25933  -1.97465
S    -0.89778  -1.89247  -4.23747
S    -2.71470  -3.21833  -2.14851
S     0.24348  -3.91555  -2.27343
S    -0.86272  -2.22699   0.02981
S     0.90429  -0.93724  -2.00207
C    -0.60047  -0.58948  -3.00109
C    -1.23649  -3.37816  -3.21936
C    -2.29589  -1.82695  -1.05171
C     0.51486  -2.51820  -1.15056
C    -0.29918   0.71426  -3.72026
C    -1.54358  -4.49941  -4.19814
C    -3.45200  -1.58653  -0.09608
C     1.73083  -2.81948  -0.28475
H     0.55572   0.59132  -4.38267
H    -0.07043   1.48440  -2.97711
H    -1.16243   1.02579  -4.30525
H    -2.41438  -4.23714  -4.79529
H    -1.74819  -5.41898  -3.65357
H    -0.69270  -4.65664  -4.85798
H    -3.66759  -2.49028   0.47087
H    -4.34049  -1.29330  -0.65218
H    -3.17895  -0.78421   0.59642
H     1.90731  -1.97848   0.40605
H     2.61183  -2.95648  -0.90998
H     1.56377  -3.72629   0.29452
O     0.63454   1.50707  -0.22047
