26

Pt    0.00000   0.00000   0.00000
C    -1.61208   0.63234  -1.08037
H    -2.51423   0.54387  -0.47030
H    -1.73329  -0.01711  -1.95199
H    -1.52095   1.66563  -1.42257
C     1.74565   2.04929   1.49313
H     2.79435   2.15525   1.21405
H     1.46445   2.96050   2.02461
C     0.90538   1.94030   0.23836
H     0.12417   2.69410   0.15522
C     1.34601   1.35431  -0.94671
H     0.90272   1.71036  -1.87685
C     2.67464   0.66929  -1.16181
H     3.43267   1.42587  -1.39137
H     2.57539   0.03773  -2.04960
C     3.15805  -0.20597   0.01214
H     3.86280  -0.94082  -0.38228
H     3.69815   0.39589   0.74296
C     2.03314  -0.93578   0.69912
H     1.90859  -1.97997   0.42306
C     1.35931  -0.47404   1.78301
H     0.76030  -1.18046   2.35353
C     1.55556   0.86005   2.45728
H     2.41466   0.79675   3.13328
H     0.67455   1.05210   3.07543
O    -0.84502  -1.39385   0.25615
