40

Rh    0.00000   0.00000   0.00000
S     0.00768  -2.35795   0.64452
N    -2.24569  -1.89240   1.95852
H    -1.88153  -0.90948   2.00655
Cl   -0.75614   0.69519   2.09216
C    -1.46683  -2.80263   1.33447
C    -1.91863  -4.13947   1.29607
H    -1.29226  -4.87088   0.81224
C    -3.12815  -4.46839   1.84248
H    -3.48408  -5.48661   1.80328
C    -3.91886  -3.47495   2.44651
H    -4.88021  -3.71350   2.86833
C    -3.43698  -2.19516   2.48431
H    -3.97992  -1.37765   2.93285
C     2.15459   0.13207  -0.38493
C     1.46370  -0.25376  -1.60050
C     0.60348   0.81246  -1.97620
C     0.68380   1.82371  -0.95608
C     1.69732   1.42126  -0.01133
C     3.28012  -0.63680   0.22663
H     4.19096  -0.46764  -0.35091
H     3.06577  -1.70373   0.22331
H     3.45797  -0.32523   1.25277
C     1.77951  -1.47898  -2.39478
H     0.98404  -1.70364  -3.10052
H     1.90661  -2.33878  -1.73958
H     2.70886  -1.32697  -2.94691
C    -0.20187   0.93563  -3.22758
H     0.08197   1.84841  -3.75205
H    -1.26633   0.99060  -2.99987
H    -0.03724   0.08499  -3.88298
C     0.03932   3.17064  -1.02844
H    -0.10910   3.58764  -0.03464
H    -0.92640   3.10764  -1.52512
H     0.67832   3.85197  -1.59476
C     2.22766   2.27783   1.09097
H     2.93947   2.99474   0.67739
H     2.73375   1.68095   1.84569
H     1.42769   2.83495   1.57496
O    -1.57615  -0.18405  -0.45208
