38

Zr    0.00000   0.00000   0.00000
Cl   -0.48610   1.67683  -1.56164
C     2.03679  -0.00026   1.38834
C     2.11971   1.14489   0.55998
C     2.30505   0.70252  -0.77135
C    -2.32387  -0.00016   0.59262
C    -1.76703   1.15142   1.22564
C    -0.86909   0.71190   2.23897
C    -3.34058  -0.00010  -0.51526
C    -2.15345   2.58655   1.00308
C    -0.22937   1.63825   3.23688
H     2.07645  -0.00027   2.46874
H     2.19491   2.17379   0.89463
H     2.49135   1.33741  -1.62896
H    -4.35536   0.00100  -0.11161
H    -3.22051   0.88263  -1.14547
H    -2.81237   2.92580   1.80651
H    -2.67828   2.70867   0.05789
H    -1.27232   3.23196   0.98959
H     0.36722   2.40917   2.74423
H    -1.00324   2.14428   3.81742
H     0.40763   1.09939   3.93470
C     2.11946  -1.14544   0.55998
C     2.30490  -0.70317  -0.77135
C    -1.76667  -1.15164   1.22549
C    -0.86901  -0.71190   2.23901
H    -3.22195  -0.88385  -1.14429
H     2.19429  -2.17435   0.89461
H     2.49096  -1.33814  -1.62894
C    -2.15254  -2.58688   1.00279
C    -0.22931  -1.63806   3.23710
H    -2.81145  -2.92642   1.80613
H    -2.67720  -2.70917   0.05752
H    -1.27116  -3.23195   0.98942
H     0.36768  -2.40879   2.74463
H    -1.00322  -2.14433   3.81737
H     0.40730  -1.09902   3.93514
O    -0.34461  -1.18020  -1.10040
