39

Fe    0.00000   0.00000   0.00000
N     0.66515  -1.30336   1.10032
C     1.85137  -1.80824   0.76049
C     2.39897  -1.12853  -0.33520
H     3.37871  -1.34032  -0.74391
N     1.63799  -0.15599  -0.80115
C     2.17072   0.72802  -1.82047
H     2.80843   0.14274  -2.49898
C     1.02809   1.35308  -2.61919
H     0.43792   0.58098  -3.10675
H     1.42636   2.02253  -3.37677
H     0.37917   1.92884  -1.95650
C     3.01581   1.81380  -1.14575
H     2.40011   2.36821  -0.44181
H     3.41148   2.49886  -1.89063
H     3.84381   1.36616  -0.60105
C    -0.07984  -1.80803   2.23692
H     0.30873  -2.79865   2.50980
C    -1.55891  -1.93933   1.86435
H    -1.97208  -0.95954   1.61180
H    -2.11814  -2.34159   2.70480
H    -1.67963  -2.60012   1.00979
C     0.07050  -0.85206   3.42574
H     1.11762  -0.69463   3.66966
H    -0.43882  -1.25776   4.29585
H    -0.36074   0.11465   3.17865
C     2.54322  -2.96208   1.36067
C     2.95799  -3.98952   0.51225
H     2.73295  -3.92348  -0.54177
C     3.62830  -5.08948   1.01256
H     3.93632  -5.87967   0.34386
C     3.90277  -5.18110   2.36740
H     4.42575  -6.04076   2.75872
C     3.50836  -4.16095   3.21570
H     3.72924  -4.21966   4.27131
C     2.83591  -3.05850   2.71893
H     2.56071  -2.25859   3.38792
Cl    0.06039   1.75921   1.05778
O    -1.02659  -0.71041  -1.07885
