35

Br   -2.18164  -0.47313  -0.59898
Ni    0.00000   0.00000   0.00000
O    -0.87222   0.14481   2.38744
H    -0.64134  -0.75850   2.64407
H    -1.80528   0.10246   2.13784
O     1.78274   0.71856   1.20768
H     2.31727  -0.08556   1.23745
H     1.39711   0.82426   2.08578
N    -0.23366   1.79522  -0.50869
N     1.02857  -0.00136  -2.02715
C    -0.67520   2.70272   0.35039
H    -1.00989   2.33790   1.31282
C    -0.72313   4.05033   0.05608
H    -1.09366   4.74805   0.79039
C    -0.29220   4.49276  -1.19218
C     0.16452   3.53278  -2.08284
H     0.52634   3.82854  -3.05513
C     0.17754   2.18934  -1.72158
C     0.64292   1.13074  -2.62923
C     0.65291   1.26551  -4.01386
H     0.29489   2.17198  -4.47681
C     1.08763   0.20932  -4.80314
C     1.50228  -0.95086  -4.15475
H     1.85015  -1.80094  -4.72042
C     1.44819  -1.01084  -2.77414
H     1.74712  -1.90514  -2.24300
C    -0.30704   5.94381  -1.54346
H     0.52927   6.44815  -1.05877
H    -1.22495   6.41151  -1.19393
H    -0.21880   6.08875  -2.61703
C     1.10894   0.30266  -6.29376
H     0.72422   1.26053  -6.63415
H     0.50421  -0.49269  -6.72656
H     2.12715   0.18142  -6.66170
O     0.37934  -1.55968   0.38210
