32

Ni    0.00000   0.00000   0.00000
P     0.57522   1.68338  -1.23902
P    -0.14719  -1.76418   1.25336
C    -1.73843  -0.25490  -0.83657
H    -2.15096   0.66165  -1.26567
H    -2.47634  -0.65251  -0.13371
H    -1.60789  -0.98441  -1.64709
C    -0.46097   2.36684  -2.59895
H    -1.37863   2.78600  -2.19222
H    -0.71835   1.57466  -3.29859
H     0.08456   3.14841  -3.12516
C     0.95742   3.22487  -0.32671
H     1.32320   3.98328  -1.01795
H     1.71140   3.01498   0.42866
H     0.05579   3.58486   0.16604
C     2.13957   1.40467  -2.15282
H     2.41926   2.30830  -2.69296
H     2.00369   0.58626  -2.85787
H     2.92305   1.13586  -1.44797
C     0.01842  -1.47288   3.05400
H     0.02514  -2.42499   3.58333
H    -0.81863  -0.86901   3.40033
H     0.94377  -0.93412   3.24512
C    -1.58673  -2.91208   1.24841
H    -1.38366  -3.76650   1.89190
H    -1.77593  -3.26112   0.23579
H    -2.47328  -2.39654   1.61096
C     1.20775  -2.96171   0.95366
H     2.16382  -2.45804   1.07688
H     1.13652  -3.33819  -0.06543
H     1.13160  -3.79163   1.65499
O     1.45806   0.22790   0.73800
