40

Rh    0.00000   0.00000   0.00000
N    -0.88222  -1.74380  -0.44925
N    -1.98397   0.73943  -0.02213
C    -3.04305  -2.74425  -0.57900
H    -4.11076  -2.62211  -0.68044
C    -2.21864  -1.63213  -0.58084
C    -1.92232   2.06509  -0.59079
C    -0.69397   2.72664  -0.43793
C    -2.98340   2.67059  -1.23969
H    -3.93097   2.16173  -1.34010
C    -2.77943  -0.23982  -0.76199
H    -2.69799   0.02025  -1.82571
H    -3.84167  -0.23091  -0.49244
C     0.38601   2.05655   0.29463
H     1.38597   2.44244   0.10898
C    -0.34806  -2.95930  -0.31649
H     0.72990  -2.98803  -0.22045
C    -3.70501   1.12347   3.29111
H    -4.68907   1.04364   3.72774
C    -1.11103  -4.11300  -0.31468
H    -0.63283  -5.07342  -0.21029
C    -2.81671   3.93306  -1.78733
H    -3.63748   4.40110  -2.30933
C    -2.48636  -4.00840  -0.44580
H    -3.11517  -4.88529  -0.44176
C    -2.27619   0.96218   1.37546
C    -0.54668   3.98971  -1.00465
H     0.40089   4.49993  -0.91629
C    -3.53899   0.88862   1.93416
H    -4.40081   0.63243   1.33602
C    -1.59959   4.58476  -1.67512
H    -1.47267   5.56312  -2.11350
C     0.16047   1.40800   1.53202
H     1.00526   1.32017   2.21307
C    -1.16617   1.32046   2.16145
C    -2.61680   1.44931   4.08084
H    -2.75113   1.62279   5.13774
C    -1.35581   1.55053   3.51991
H    -0.50538   1.80487   4.13481
O     1.54315  -0.58407  -0.00670
