26

Pt    0.00000   0.00000   0.00000
Cl   -2.28712   0.00015   0.64550
Cl   -0.33160  -1.68408  -1.52916
N     0.27797  -1.54319   1.44687
C     1.24980  -1.27431   2.50520
C     0.95836   0.00006   3.32343
C    -0.47807   0.00006   3.85301
C     1.93296   0.00007   4.50855
H     0.56267  -2.35715   0.89756
H    -0.65174  -1.72814   1.82977
H     1.28039  -2.12471   3.19734
H     2.23107  -1.17611   2.03332
H    -1.21615   0.00006   3.05367
H    -0.64512  -0.87789   4.47261
H     1.78053   0.87880   5.12912
H     2.96225   0.00007   4.16008
Cl   -0.33149   1.68420  -1.52902
N     0.27796   1.54327   1.44683
C     1.24979   1.27442   2.50518
H    -0.64513   0.87803   4.47260
H     1.78053  -0.87866   5.12913
H     0.56266   2.35723   0.89752
H    -0.65174   1.72823   1.82973
H     1.28037   2.12483   3.19730
H     2.23106   1.17622   2.03329
O     1.61856   0.00011  -0.32057
