51

Pt    0.00000   0.00000   0.00000
P    -0.65666   2.02443   0.71582
C    -0.74462   2.27912   2.51316
C    -0.00398   1.41738   3.31508
H     0.58172   0.63567   2.84098
C    -0.02622   1.55837   4.69053
H     0.55006   0.89001   5.31289
C    -0.79404   2.55741   5.26756
H    -0.81475   2.66894   6.34146
C    -1.54166   3.41156   4.47136
H    -2.14301   4.18538   4.92590
C    -1.52157   3.27568   3.09507
H    -2.10864   3.93506   2.46948
C     0.33464   3.41753   0.10144
C     0.76560   4.48636   0.87526
H     0.51236   4.53592   1.92511
C     1.53041   5.48590   0.29670
H     1.86825   6.31660   0.89899
C     1.86591   5.42177  -1.04508
H     2.46409   6.20399  -1.48830
C     1.44496   4.34980  -1.81831
H     1.71616   4.29460  -2.86201
C     0.68679   3.34862  -1.24527
H     0.36490   2.49028  -1.82617
C    -2.33392   2.47541   0.16321
C    -2.60244   3.66827  -0.49979
H    -1.80716   4.38080  -0.66588
C    -3.88173   3.95193  -0.94319
H    -4.07912   4.88398  -1.45139
C    -4.90289   3.04141  -0.73531
H    -5.90235   3.25636  -1.08219
C    -4.64029   1.84909  -0.08269
H    -5.43981   1.13910   0.07684
C    -3.36300   1.55161   0.36915
C    -3.09489   0.26039   1.08885
H    -2.57383   0.47542   2.03047
H    -4.06067  -0.21096   1.33931
N    -2.27675  -0.69185   0.32413
C    -2.95517  -1.02744  -0.92394
H    -3.95653  -1.43918  -0.73682
H    -2.37420  -1.76672  -1.47229
H    -3.05362  -0.13406  -1.54132
C    -2.12360  -1.89320   1.14455
H    -3.09929  -2.27512   1.47670
H    -1.52012  -1.66375   2.02611
H    -1.62880  -2.67649   0.57514
C     1.97708   0.55229   0.11931
H     2.13625   1.49546   0.64922
H     2.39528   0.64188  -0.88543
H     2.51098  -0.24552   0.64567
O     0.42558  -1.39697  -0.76803
