47

Cd    0.00000   0.00000   0.00000
I     0.80670   2.34867  -1.09784
N    -1.56094  -0.60915  -1.78214
C     0.40697  -1.17413  -2.96232
C    -0.99555  -0.71297  -2.91834
N     1.04559  -1.28067  -1.79454
C    -1.63242  -0.39468  -4.22072
C     2.29720  -1.70110  -1.77658
H     2.76407  -1.77137  -0.79994
C    -2.91646  -0.15938  -1.64545
H    -3.50151  -1.00398  -1.26591
H    -3.35397   0.16369  -2.60075
N    -2.36609   0.75617   0.63353
C    -2.99013  -0.35902   1.36259
H    -2.46275  -0.46209   2.31281
H    -2.80408  -1.27648   0.79521
C    -1.86478   1.09818  -6.08756
H    -1.58937   2.01249  -6.59061
C    -2.57785  -1.24396  -4.78518
H    -2.84956  -2.15706  -4.27451
C    -2.80084   0.24696  -6.65204
H    -3.25514   0.49560  -7.59924
C    -3.15477  -0.92348  -6.00162
H    -3.88385  -1.58871  -6.43934
C    -1.27553   0.77981  -4.87727
H    -0.54830   1.44215  -4.43060
C     1.02745  -1.49709  -4.16797
H     0.48942  -1.40838  -5.09897
C     2.34221  -1.93309  -4.14622
H     2.84741  -2.18363  -5.06702
C     2.99392  -2.04075  -2.92888
H     4.01727  -2.37450  -2.86860
C    -2.34870   2.00281   1.41445
H    -3.36719   2.29227   1.71322
H    -1.96565   2.79143   0.75940
C    -4.48977  -0.24740   1.64627
H    -4.72326   0.64729   2.21803
H    -4.79526  -1.10899   2.23442
H    -5.07740  -0.24019   0.73069
C    -1.45230   1.94138   2.64562
H    -1.83269   1.25810   3.40082
H    -1.39429   2.93301   3.08831
H    -0.43977   1.63576   2.37053
C    -2.99450   1.01741  -0.66244
H    -2.47038   1.86330  -1.11959
H    -4.05169   1.30354  -0.55337
O     0.41826  -1.01068   1.23535
