48

Ti    0.00000   0.00000   0.00000
Cl   -1.65741   1.16292  -0.83982
N    -0.68095  -1.12296   1.23515
N     0.51792  -1.23137  -1.21385
C    -1.22502  -2.42782   0.92861
H    -0.53295  -3.21585   1.28187
H    -2.18375  -2.58271   1.44414
C    -1.43274  -2.58221  -0.58384
H    -2.08059  -1.76653  -0.93331
H    -1.92348  -3.53844  -0.78157
C    -0.11018  -2.52699  -1.36096
H    -0.30255  -2.74946  -2.42017
H     0.56448  -3.31671  -0.97917
C    -0.85128  -0.60288   2.53114
C    -2.11152  -0.16955   2.98410
C    -2.22534   0.34574   4.26769
H    -3.19206   0.68349   4.61307
C    -1.12527   0.44291   5.10044
H    -1.23389   0.84692   6.09568
C     0.11533   0.03126   4.64955
H     0.97909   0.11380   5.29346
C     0.26937  -0.49295   3.37408
C    -3.31761  -0.22345   2.09021
H    -3.02763  -0.09045   1.04494
H    -3.83667  -1.17827   2.18914
H    -4.01788   0.56280   2.36425
C     1.62516  -0.93058   2.89633
H     2.18063  -1.39867   3.70729
H     1.53327  -1.63231   2.06220
H     2.19138  -0.05992   2.55626
C     1.40186  -0.78584  -2.21392
C     0.94220  -0.42011  -3.49281
C     1.85850   0.03009  -4.43374
H     1.50442   0.31751  -5.41352
C     3.20503   0.12569  -4.13475
H     3.90121   0.47926  -4.88028
C     3.65511  -0.22603  -2.87499
H     4.70610  -0.14862  -2.63641
C     2.77193  -0.68402  -1.90902
C    -0.51742  -0.47756  -3.84356
H    -0.78467  -1.45521  -4.24823
H    -1.13411  -0.28362  -2.96267
H    -0.74543   0.26726  -4.60314
C     3.26536  -1.06344  -0.54215
H     4.31688  -1.33978  -0.58067
H     2.68739  -1.89913  -0.14115
H     3.15901  -0.21189   0.13593
O     1.00428   1.23014   0.44797
