63

Ru    0.00000   0.00000   0.00000
I     0.50008   2.55911   0.65063
C    -1.28271  -3.01867  -0.71280
C    -0.68542  -4.36580  -0.22490
H    -1.21926  -4.76909   0.64422
H    -0.65774  -5.12251  -1.01024
C    -0.16636   0.57966   3.90678
H    -0.72644   1.51099   3.84555
H     0.80138   0.74239   3.44580
H    -0.02461   0.31551   4.95211
C     0.73710  -2.72596   0.15934
C     1.90325  -2.02336   0.58705
C     3.99204  -1.62302   1.16854
H     4.80802  -1.68519   0.44382
H     4.38841  -1.79909   2.17243
C     3.21090  -0.28171   1.06148
C    -0.91848  -0.53952   3.18289
C    -2.38902  -0.60143   3.67623
H    -2.74337  -1.63134   3.80527
H    -2.54435  -0.05085   4.60516
C    -2.31673   0.17291   1.61329
C    -2.73496   0.67849   0.34606
C    -3.96882   1.65868  -1.19618
H    -4.15844   2.73504  -1.17668
H    -4.78104   1.16003  -1.73247
C    -2.56844   1.31841  -1.78257
C    -2.66880  -2.76480  -0.12781
H    -2.63354  -2.72870   0.96054
H    -3.34204  -3.56506  -0.42692
H    -3.06722  -1.82160  -0.49312
C    -1.31445  -2.97954  -2.24247
H    -0.33783  -3.24016  -2.64633
H    -1.56238  -1.98242  -2.58865
H    -2.05532  -3.68237  -2.61631
C    -1.82602   2.59076  -2.19024
H    -1.77361   3.29305  -1.36163
H    -2.35128   3.05976  -3.01863
H    -0.81441   2.35819  -2.51050
C    -2.70508   0.38654  -2.98570
H    -3.24221  -0.52205  -2.71668
H    -1.72623   0.13393  -3.38265
H    -3.26376   0.89865  -3.76540
O     0.64946  -4.06443   0.16536
O     3.04961  -2.64972   0.87275
O    -3.15585   0.01413   2.64759
O    -3.95817   1.18025   0.14575
N    -0.29422  -2.05276  -0.23505
N     1.85946  -0.73470   0.69420
N    -1.08051  -0.16923   1.77761
N    -1.90319   0.66295  -0.64490
C     3.22809   0.45506   2.39996
H     2.81906  -0.16842   3.19394
H     2.66578   1.38160   2.33010
H     4.25652   0.70246   2.65183
C    -0.20493  -1.87791   3.34908
H    -0.70543  -2.66128   2.78083
H    -0.20060  -2.15992   4.39960
H     0.82382  -1.80398   3.00550
C     3.80448   0.60774  -0.03065
H     3.85853   0.07687  -0.97817
H     4.80657   0.91094   0.26246
H     3.20059   1.50009  -0.16860
O     0.67744   0.02053  -1.50438
