46

Tc    0.00000   0.00000   0.00000
S    -1.26710  -1.98556  -0.29252
S     1.83926   1.10020  -0.93674
O    -0.59322   0.82488   1.28711
N     0.33148  -2.95903   1.66825
N     1.49788  -1.09437   0.80487
N    -1.10389  -4.42418   0.71998
N     2.77030  -0.62730   0.85213
N     4.34170   0.82322   0.03810
C    -0.59290  -3.18807   0.76838
C     1.20675  -1.98483   1.76522
C     3.07956   0.36589   0.09343
C     1.99032  -1.97400   3.01438
C     2.29503  -0.76122   3.62776
H     1.95326   0.16137   3.18178
C     3.00129  -0.74719   4.81512
H     3.22968   0.19437   5.29179
C     3.41176  -1.93640   5.39697
H     3.96901  -1.92097   6.32198
C     3.09975  -3.14448   4.79548
H     3.41329  -4.07219   5.25124
C     2.38550  -3.16646   3.61190
H     2.13903  -4.10126   3.13361
C    -2.19136  -4.76814  -0.17005
H    -2.86659  -3.91148  -0.23458
H    -2.73534  -5.60497   0.27411
C    -1.71717  -5.14019  -1.57278
H    -2.57701  -5.34573  -2.20379
H    -1.15952  -4.31626  -2.00887
H    -1.08435  -6.02344  -1.55037
C    -0.50124  -5.45754   1.54058
H    -0.30207  -5.02344   2.52402
H    -1.22253  -6.26955   1.64556
C     0.80361  -5.98813   0.95166
H     1.23577  -6.72526   1.62322
H     0.63495  -6.45730  -0.01378
H     1.51150  -5.17377   0.82365
C     4.71456   1.99351  -0.71198
H     5.69432   1.82970  -1.16326
H     3.98701   2.17904  -1.49799
H     4.76842   2.87551  -0.06567
C     5.32929   0.32816   0.96705
H     6.24274   0.07369   0.42618
H     5.56520   1.08749   1.71828
H     4.93626  -0.55552   1.46144
O    -0.75876   0.40521  -1.40804
