63

C     2.99005   2.26428   1.78790
C     3.69850   1.27357   1.11670
H     4.75958   1.14830   1.08119
C     2.73459   0.46994   0.48817
C     2.76710  -0.71261  -0.35261
C     3.91485  -1.35877  -0.74330
H     4.87738  -0.98980  -0.42506
C     3.83619  -2.50439  -1.55857
C     4.96752  -3.22120  -1.99657
H     5.94834  -2.88229  -1.69747
C     4.81655  -4.32734  -2.78696
H     5.68418  -4.87614  -3.12149
C     3.53819  -4.76489  -3.17387
H     3.44807  -5.64075  -3.79826
C     2.42004  -4.09156  -2.76578
H     1.43338  -4.41847  -3.05638
C     2.54314  -2.94837  -1.95003
C     1.42475  -2.21803  -1.49916
H     0.41859  -2.52037  -1.77312
C     3.46036   3.36733   2.60637
C     4.81725   3.50833   2.85745
H     5.53680   2.81380   2.46009
C     5.28693   4.56401   3.64129
C     4.38639   5.47319   4.17184
H     4.69612   6.30567   4.78058
C     3.01713   5.33348   3.92575
C     2.55274   4.28634   3.14384
H     1.49936   4.18495   2.94608
C     7.18165   5.64190   4.61136
H     6.74688   5.61994   5.61974
H     6.96387   6.61679   4.15404
C     8.68867   5.42099   4.68731
H     9.14292   6.28918   5.16816
H     9.07999   5.34731   3.67144
C     9.04052   4.15290   5.46191
H     8.55164   3.30294   4.98380
H     8.65248   4.23363   6.47999
C    10.54507   3.92172   5.50934
H    10.94753   3.81774   4.50434
H    10.77466   3.01671   6.06631
H    11.04504   4.75823   5.99291
C     0.82949   6.20555   4.34176
H     0.45711   5.24074   4.71160
H     0.56534   6.30506   3.28011
C     0.21007   7.34485   5.14410
H     0.66602   8.28282   4.82343
H    -0.85672   7.38631   4.91851
C     0.41878   7.16385   6.64593
H     1.48833   7.08687   6.84505
H    -0.05004   6.23042   6.96453
C    -0.16914   8.32307   7.43894
H     0.30246   9.25983   7.15235
H    -0.01529   8.17343   8.50473
H    -1.23749   8.40805   7.25549
Cl   -1.62235  -1.17507  -0.93335
N     1.52232   0.95814   0.77171
N     1.67832   2.02035   1.54085
H     0.83957   2.50444   1.84658
N     1.52507  -1.15474  -0.73892
O     6.62773   4.60638   3.82129
O     2.23560   6.27718   4.49888
Pd    0.00000   0.00000   0.00000
O    -1.02811   1.07608   0.71241
