48

Pt    0.00000   0.00000   0.00000
N     0.50724  -2.04613  -0.88416
N     1.35064   0.92019  -1.57320
C    -0.51506   1.85184   0.74094
H    -1.57433   1.93212   0.98616
H    -0.28122   2.61192  -0.01023
H     0.06120   2.06151   1.64370
C    -1.19775  -0.86092   1.43442
H    -1.17048  -0.27436   2.35453
H    -0.78221  -1.84897   1.65407
H    -2.23994  -0.97588   1.13247
C    -1.60000   0.21715  -1.29207
H    -2.56450   0.33693  -0.80102
H    -1.66122  -0.66103  -1.93971
H    -1.44430   1.09294  -1.92534
C    -0.39930  -3.01554  -0.93059
H    -1.41045  -2.74534  -0.65694
C    -0.10366  -4.31603  -1.29986
H    -0.89311  -5.04921  -1.30445
C     1.19934  -4.65190  -1.64682
C     2.13887  -3.62339  -1.60765
H     3.16968  -3.81375  -1.86487
C     1.75612  -2.35498  -1.22227
H     2.49094  -1.56289  -1.17355
C     2.22520   1.86254  -1.23430
H     2.22814   2.17534  -0.19924
C     3.11208   2.42264  -2.13476
H     3.80373   3.18103  -1.80222
C     3.11187   1.99387  -3.45702
C     2.19013   1.01038  -3.80111
H     2.13932   0.63412  -4.81181
C     1.33638   0.50943  -2.83696
H     0.61479  -0.25585  -3.09257
C     1.63258  -6.03414  -2.03860
H     2.30025  -6.40780  -1.25561
H     2.23057  -5.95753  -2.95159
C     0.50397  -7.03383  -2.25504
H    -0.04519  -7.20915  -1.33306
H     0.91605  -7.98390  -2.58658
H    -0.18750  -6.67868  -3.01630
C     4.02506   2.60138  -4.47570
H     4.24149   1.87475  -5.26117
H     4.96488   2.89120  -4.00236
C     3.36903   3.83782  -5.09602
H     2.43414   3.56887  -5.58303
H     4.02978   4.28304  -5.83519
H     3.15571   4.57956  -4.32969
O     1.31079  -0.17995   0.98587
