37

Ir    0.00000   0.00000   0.00000
O     1.43501  -2.59046   0.46263
N    -1.44419  -0.96271   2.58787
N    -1.80342   1.08359   1.95253
N    -0.96128   1.87083  -0.00986
N    -0.27118  -2.57905   3.73597
C    -1.13184  -0.07405   1.61385
C    -2.24688  -0.37514   3.53159
C    -2.48647   0.89213   3.13832
C    -1.70182   2.16258   1.08625
C    -2.27873   3.42763   1.28033
C    -2.08267   4.37315   0.28322
C    -1.34500   4.06354  -0.84839
C    -0.79885   2.80229  -0.94649
C    -3.07405   3.82376   2.48708
C    -0.99653  -2.30150   2.66707
C    -1.35770  -3.24057   1.69517
C    -0.83740  -4.51863   1.86301
C    -0.03458  -4.80702   2.95375
C     0.20374  -3.80246   3.87756
C    -2.26322  -2.90572   0.55594
C     0.85918  -1.60469   0.27120
H    -2.58244  -0.90893   4.39633
H    -3.08847   1.62905   3.61751
H    -2.51081   5.35758   0.39909
H    -1.18953   4.78573  -1.63201
H    -0.20630   2.52539  -1.80659
H    -3.34347   4.87483   2.41159
H    -2.49611   3.69095   3.40048
H    -3.99712   3.24902   2.55690
H    -1.06760  -5.28473   1.13710
H     0.38511  -5.79081   3.08909
H     0.79681  -3.97146   4.76527
H    -1.74241  -2.26336  -0.16064
H    -3.14174  -2.36709   0.90773
H    -2.58053  -3.81078   0.04545
O     0.81162   0.24315  -1.41586
