64

Re    0.00000   0.00000   0.00000
O    -0.34819   0.11220  -1.62155
Cl   -0.96693  -2.10496   0.32605
N    -3.16441   0.65362  -0.05218
N    -2.03515   0.78709   0.63392
C    -2.33900   1.30944   1.82783
C    -3.72681   1.53062   1.87840
H    -4.29273   1.92550   2.69494
C    -4.20641   1.09479   0.66657
H    -5.20761   1.06937   0.28589
C    -3.20175   0.05049  -1.35162
H    -4.23369  -0.00516  -1.68958
H    -2.76838  -0.95278  -1.29764
H    -2.60340   0.63088  -2.05624
O     0.25088   0.19220   1.80406
C    -0.09239   0.92123   2.83504
C    -1.36773   1.54108   2.88314
C    -1.68696   2.33839   3.97236
H    -2.64419   2.83038   4.02492
C    -0.78640   2.54950   5.01134
C     0.45821   1.92627   4.97024
H     1.17799   2.06170   5.76157
C     0.79013   1.11957   3.90134
H     1.75361   0.63418   3.86428
O    -1.21592   3.37887   6.00584
C    -0.37681   3.58333   7.11661
H    -0.15240   2.64294   7.62972
H    -0.93266   4.23531   7.78865
H     0.55932   4.07400   6.82986
P     0.99116   2.32551  -0.11502
C    -0.32980   3.49482   0.30141
C    -0.42089   4.15122   1.52288
H     0.37618   4.06229   2.24758
C    -1.54239   4.90805   1.81662
H    -1.60802   5.41671   2.76679
C    -2.58183   4.99880   0.90695
H    -3.45776   5.58362   1.14479
C    -2.50352   4.33096  -0.30659
H    -3.31905   4.39386  -1.01213
C    -1.38553   3.57900  -0.60692
H    -1.31074   3.03594  -1.54077
C     1.55609   2.83944  -1.76345
C     1.45392   4.15457  -2.20533
H     0.98264   4.90329  -1.58350
C     1.94294   4.49757  -3.45269
H     1.86201   5.51800  -3.79809
C     2.53276   3.53666  -4.25830
H     2.91062   3.81107  -5.23215
C     2.63237   2.22631  -3.81885
H     3.08556   1.47659  -4.44932
C     2.14709   1.87356  -2.57246
H     2.20669   0.85200  -2.22157
C     2.40613   2.76074   0.93955
C     3.16893   1.75177   1.51614
H     2.92128   0.71670   1.32279
C     4.25480   2.07893   2.31043
H     4.84700   1.29420   2.75707
C     4.58390   3.40608   2.52722
H     5.42837   3.66010   3.15095
C     3.83753   4.41239   1.93318
H     4.10365   5.44766   2.08994
C     2.75418   4.09522   1.13591
H     2.17994   4.88012   0.66416
O     1.47752  -0.70689  -0.19937
