62

Re    0.00000   0.00000   0.00000
O     0.68737  -0.93824   1.18232
Cl   -2.18975  -0.27204   0.59223
C     3.04972  -1.63324  -0.25957
H     3.96970  -2.16720  -0.48434
H     2.18515  -2.23258  -0.56040
H     2.97434  -1.44863   0.81394
N     3.03982  -0.39225  -0.97593
N     1.99696   0.43019  -0.95596
C     2.28045   1.46800  -1.75383
C     3.57109   1.29106  -2.28118
H     4.08663   1.93243  -2.96402
C     4.00903   0.09502  -1.76230
H     4.93367  -0.42547  -1.90899
O    -0.49350   1.29120  -1.27405
C    -0.05544   2.33852  -1.88882
C     1.34647   2.53972  -2.06669
C     1.79014   3.73486  -2.60467
H     2.84520   3.93581  -2.71221
C     0.88275   4.71060  -2.99841
C    -0.49220   4.48120  -2.92189
H    -1.17149   5.24008  -3.27773
C    -0.95126   3.30654  -2.38730
H    -2.00744   3.10405  -2.30510
N     1.36780   5.95899  -3.49316
O     2.57315   6.11293  -3.56306
O     0.55058   6.80357  -3.80487
P    -0.00387   1.89484   1.67610
C    -0.76800   3.40604   1.03445
C    -0.08095   4.59598   0.82347
H     0.96256   4.67885   1.09077
C    -0.74423   5.68307   0.28061
H    -0.20993   6.60648   0.11403
C    -2.08653   5.59048  -0.04708
H    -2.59606   6.44265  -0.47058
C    -2.77433   4.40540   0.16797
H    -3.82164   4.33341  -0.08524
C    -2.11938   3.31136   0.69977
H    -2.63812   2.37330   0.85430
C     1.63701   2.35667   2.30288
C     2.60677   2.77947   1.39493
H     2.35640   2.86072   0.34690
C     3.87984   3.09570   1.82935
H     4.62265   3.42913   1.11971
C     4.20116   2.98164   3.17300
H     5.19642   3.22564   3.51251
C     3.24535   2.55012   4.07753
H     3.49536   2.45634   5.12377
C     1.96770   2.23526   3.64856
H     1.22608   1.89635   4.35676
C    -0.96124   1.50091   3.16530
C    -1.63812   2.49193   3.86973
H    -1.61780   3.51543   3.52169
C    -2.34083   2.15914   5.01391
H    -2.87127   2.92651   5.55809
C    -2.36880   0.84697   5.45766
H    -2.92608   0.59225   6.34676
C    -1.68891  -0.13910   4.75995
H    -1.71527  -1.16177   5.10388
C    -0.98458   0.18361   3.61490
H    -0.46139  -0.57857   3.04999
O    -0.14587  -1.14949  -1.17469
