46

Mn    0.00000   0.00000   0.00000
O     1.68276   0.58790  -0.29242
C     2.66495   0.19280  -1.07767
C     2.56185  -0.87929  -2.00208
C     3.66621  -1.19942  -2.79343
H     3.58701  -2.01245  -3.49853
C     4.84951  -0.49951  -2.69361
H     5.68951  -0.76523  -3.31743
C     4.95694   0.54813  -1.78769
H     5.88201   1.09945  -1.70431
C     3.88442   0.88673  -0.99462
H     3.95060   1.69867  -0.28480
N     0.25563  -1.31720  -1.37215
C     1.32533  -1.62081  -2.11271
C     1.00602  -2.71390  -2.95088
H     1.64534  -3.19370  -3.66157
C    -0.29915  -3.03828  -2.67306
N    -0.70934  -2.17430  -1.71805
H    -1.61763  -2.11106  -1.28146
C    -1.19060  -4.08782  -3.22676
H    -0.65979  -4.66818  -3.97551
H    -2.06879  -3.63784  -3.68856
H    -1.52864  -4.75855  -2.43744
O    -0.43370  -1.30742   1.16842
C    -0.69559  -1.32858   2.46002
C    -0.74260  -0.17164   3.28082
C    -1.04465  -0.31504   4.63602
H    -1.08313   0.56465   5.25982
C    -1.29553  -1.55210   5.18987
H    -1.52844  -1.63729   6.24050
C    -1.24757  -2.68795   4.39152
H    -1.44276  -3.65998   4.82011
C    -0.95214  -2.57728   3.05200
H    -0.91050  -3.45015   2.41650
N    -0.20262   1.28493   1.41127
C    -0.48146   1.13052   2.70876
C    -0.47611   2.39973   3.33194
H    -0.66324   2.61616   4.36256
C    -0.18504   3.30795   2.34388
N    -0.02706   2.59380   1.20730
H     0.18268   2.93407   0.28003
C    -0.04689   4.78533   2.37639
H     0.93770   5.08621   2.02012
H    -0.17829   5.14787   3.39156
H    -0.79600   5.25228   1.73759
O    -1.22199   0.70267  -0.85761
