55

Pt    0.00000   0.00000   0.00000
Cl   -0.97237   2.07468  -0.21392
P    -1.37352   0.14977   1.81549
P     0.96806  -2.00571   0.41915
C    -3.10097   0.12096   1.26995
C    -3.37192  -0.38107   0.00281
C    -4.67766  -0.44163  -0.44724
C    -5.70920  -0.00167   0.36709
C    -5.43746   0.49509   1.63224
C    -4.13387   0.55475   2.09085
C    -1.31098  -1.07243   3.13745
C    -0.99061  -0.49059   4.30873
C    -0.88972   0.96743   4.22676
C    -1.12709   1.46595   2.99601
C    -0.75864  -1.21290   5.59200
C    -0.55858   1.78811   5.42628
C     1.69781  -1.95020   2.08432
C     1.93751  -3.09572   2.83194
C     2.48210  -2.98394   4.09863
C     2.79491  -1.73670   4.61568
C     2.56549  -0.59401   3.86584
C     2.01506  -0.69964   2.60230
C     2.21967  -2.73000  -0.63662
C     1.80337  -3.91740  -1.11724
C     0.50450  -4.34763  -0.58926
C    -0.03392  -3.48605   0.29754
C     2.55831  -4.75441  -2.09143
C    -0.11787  -5.63066  -1.02130
H    -2.54529  -0.70183  -0.62951
H    -4.89174  -0.82329  -1.43452
H    -6.72873  -0.04060   0.01270
H    -6.24496   0.84066   2.26115
H    -3.90873   0.94292   3.07441
H    -1.42256  -2.13360   2.98961
H    -1.08973   2.50450   2.71458
H    -1.45340  -0.86785   6.35687
H     0.25372  -1.02815   5.94914
H    -0.88790  -2.28335   5.45596
H    -0.50831   2.84209   5.16688
H     0.40091   1.48077   5.84056
H    -1.31276   1.65296   6.20115
H     1.69243  -4.06444   2.42021
H     2.66430  -3.87200   4.68609
H     3.22090  -1.65725   5.60544
H     2.81374   0.37794   4.26616
H     1.82370   0.18694   2.00122
H     3.12701  -2.22136  -0.91300
H    -0.99243  -3.60505   0.77563
H     2.76005  -5.74117  -1.67566
H     3.50108  -4.28062  -2.34987
H     1.97482  -4.88727  -3.00161
H    -0.29105  -5.61812  -2.09667
H    -1.06756  -5.78767  -0.51642
H     0.54194  -6.46926  -0.80134
O     0.85051   0.10117  -1.41028
