66

Se    1.27906  -1.10588   1.82050
Se    0.37970   2.45260   0.14402
Cu    0.00000   0.00000   0.00000
P    -0.50049  -1.65549   2.83013
P     1.46149   2.46320  -1.67743
C    -0.08592  -2.60446   4.39538
H    -0.13091  -3.65458   4.07603
C    -1.08900  -2.38913   5.52418
H    -1.01762  -1.37898   5.92269
H    -0.86485  -3.08217   6.33437
H    -2.11213  -2.57071   5.20354
C     1.33087  -2.31729   4.87600
H     1.56096  -2.93933   5.73933
H     1.44571  -1.27402   5.16435
H     2.05818  -2.53630   4.09694
C    -1.56076  -2.79244   1.80655
H    -1.88355  -2.17157   0.96216
C    -0.71734  -3.93139   1.24745
H    -1.28764  -4.47096   0.49472
H    -0.41989  -4.63357   2.02541
H     0.18084  -3.54338   0.76746
C    -2.78874  -3.31135   2.54366
H    -2.50979  -4.00503   3.33484
H    -3.42207  -3.84585   1.83776
H    -3.37491  -2.50106   2.97324
C    -1.55837  -0.18435   3.30292
H    -2.24374  -0.51983   4.08770
C    -2.36252   0.33031   2.11747
H    -1.69672   0.56877   1.28107
H    -2.87479   1.24990   2.39570
H    -3.10726  -0.38615   1.77769
C    -0.64603   0.90844   3.84668
H    -1.23730   1.73290   4.24107
H    -0.01464   1.30126   3.04734
H    -0.00087   0.53361   4.64062
C     2.97465   1.36092  -1.63684
H     3.63109   1.68437  -2.45073
C     2.60543  -0.10211  -1.83748
H     1.86363  -0.41239  -1.09348
H     3.48747  -0.72405  -1.69391
H     2.20741  -0.29793  -2.83075
C     3.67564   1.55729  -0.29812
H     4.62519   1.02522  -0.28709
H     3.05866   1.15872   0.50960
H     3.86611   2.61081  -0.09614
C     0.41259   1.91056  -3.11271
H     0.20892   0.85291  -2.90701
C     1.11089   2.03298  -4.46093
H     1.24654   3.07601  -4.74158
H     0.49216   1.55976  -5.22137
H     2.07976   1.53705  -4.46078
C    -0.91999   2.64904  -3.10052
H    -1.59859   2.18701  -3.81400
H    -0.80242   3.69943  -3.36442
H    -1.38255   2.58767  -2.11570
C     2.01812   4.20815  -2.08612
H     1.21884   4.58397  -2.73931
C     2.07022   5.09385  -0.84783
H     2.31665   6.11494  -1.13417
H     2.82273   4.74380  -0.14368
H     1.10886   5.10801  -0.33811
C     3.34117   4.26575  -2.84311
H     4.17090   3.97553  -2.20156
H     3.51752   5.28972  -3.17089
H     3.33691   3.62928  -3.72479
O    -0.94982  -0.76235  -1.11318
