37

Os    0.00000   0.00000   0.00000
Cl   -0.49159  -0.11263  -2.22700
N    -0.14115   1.91317  -0.18660
C     0.75809   2.70720  -0.78298
C     0.58229   4.05627  -1.00375
H     1.35388   4.62318  -1.49907
C    -0.60155   4.64550  -0.57739
H    -0.77580   5.69658  -0.74023
C    -1.54436   3.84889   0.05920
H    -2.48340   4.23540   0.42192
C    -1.28826   2.50350   0.23115
C    -2.25541   1.53041   0.90073
O    -3.27420   1.92674   1.42345
O    -1.84277   0.31620   0.85836
C     0.87018  -2.10872  -0.10881
H     0.54987  -2.70808  -0.95762
C     2.21682  -1.69253  -0.03939
H     2.87027  -1.86647  -0.88294
C     2.70215  -1.08332   1.10312
H     3.72749  -0.75037   1.15017
C     1.85896  -0.91268   2.20964
H     2.24207  -0.43847   3.10199
C     0.56592  -1.40730   2.19677
H    -0.04825  -1.34243   3.08486
C     0.03290  -2.02989   1.03986
C    -1.25662  -2.74658   1.09090
C    -1.60615  -3.47567   2.22534
H    -0.92646  -3.52532   3.06419
C    -2.80735  -4.15805   2.27515
H    -3.06624  -4.72148   3.15951
C    -3.67641  -4.11676   1.19812
H    -4.61809  -4.64310   1.24301
C    -3.33520  -3.39572   0.06580
H    -4.01204  -3.35467  -0.77398
C    -2.13161  -2.71965   0.00621
H    -1.88576  -2.13909  -0.87150
O     1.19688   0.92726  -0.65587
