39

Zn    0.00000   0.00000   0.00000
O    -2.82338  -0.00029  -1.27946
O     2.44297  -0.00027   1.90279
N    -2.01144  -0.00021   0.75994
N     0.25925  -0.00021   2.13162
C    -3.09661  -0.00026   0.01276
C    -4.38441  -0.00027   0.60296
H    -5.26758  -0.00030  -0.01498
C    -4.48926  -0.00025   1.96862
H    -5.46156  -0.00026   2.43978
C    -3.33106  -0.00022   2.77296
C    -2.10022  -0.00021   2.09104
C    -0.87785  -0.00020   2.82944
C    -0.90917  -0.00021   4.23621
C     0.34146  -0.00023   4.88742
H     0.37710  -0.00024   5.96726
C     1.50163  -0.00025   4.15942
H     2.45932  -0.00028   4.65400
C     1.42537  -0.00024   2.74494
C    -3.33139  -0.00021   4.19528
H    -4.28242  -0.00021   4.70674
C    -2.16812  -0.00021   4.89809
H    -2.17803  -0.00021   5.97788
C    -3.85506  -0.00033  -2.25697
H    -4.47986   0.89437  -2.13677
C    -3.17457  -0.00035  -3.61513
H    -3.91907  -0.00037  -4.40590
H    -2.54556  -0.88095  -3.70908
C     3.78713  -0.00033   2.36478
H     3.96951  -0.89512   2.97415
C     4.67751  -0.00036   1.13392
H     5.72275  -0.00040   1.42966
H     4.47095   0.88039   0.53258
Cl    0.43630   2.02715  -0.72521
H    -4.47983  -0.89505  -2.13673
H    -2.54557   0.88026  -3.70910
H     3.96959   0.89442   2.97417
H     4.47089  -0.88109   0.53256
O     0.32808  -1.52239  -0.54516
