63

C     1.21336  -4.65620  -1.12279
H     1.62478  -5.53169  -0.64992
C     1.50993  -3.35336  -0.62093
C     2.91629  -4.31278   1.13011
H     2.15117  -5.04902   1.37584
H     3.34260  -3.94905   2.06326
H     3.70975  -4.79895   0.55111
C     2.94269  -1.91108   0.73525
H     2.57175  -1.14341   0.06063
H     4.02852  -1.97815   0.62797
H     2.71186  -1.61790   1.76173
C     0.43541  -4.78591  -2.23222
H     0.22044  -5.76367  -2.64269
C    -0.07118  -3.63921  -2.87944
C     0.22744  -2.39372  -2.28620
C    -0.83627  -3.70459  -4.07133
H    -1.05148  -4.67930  -4.48678
C    -1.27114  -2.57663  -4.68720
H    -1.83821  -2.62602  -5.60528
C    -0.98086  -1.29777  -4.13924
C    -0.25715  -1.19778  -2.92679
C    -0.36151   1.09257  -2.95360
H    -0.10227   2.01755  -2.45334
C    -1.38697  -0.09772  -4.75016
H    -1.94847  -0.13803  -5.67332
C    -1.06086   1.10055  -4.16697
H    -1.34863   2.03810  -4.61557
Cd    0.00000   0.00000   0.00000
N     2.34621  -3.18972   0.42589
N     0.97447  -2.26982  -1.18216
N     0.01464  -0.01451  -2.35824
C    -1.21319  -4.65616   1.12267
H    -1.62471  -5.53163   0.64987
C    -1.50969  -3.35333   0.62074
C    -2.91617  -4.31268  -1.13026
H    -2.15105  -5.04888  -1.37611
H    -3.34255  -3.94885  -2.06335
H    -3.70956  -4.79889  -0.55121
C    -2.94251  -1.91102  -0.73533
H    -2.57145  -1.14333  -0.06080
H    -4.02834  -1.97797  -0.62789
H    -2.71179  -1.61785  -1.76184
C    -0.43528  -4.78588   2.23213
H    -0.22026  -5.76365   2.64255
C     0.07123  -3.63918   2.87942
C    -0.22743  -2.39369   2.28621
C     0.83623  -3.70454   4.07136
H     1.05173  -4.67925   4.48665
C     1.27104  -2.57657   4.68727
H     1.83820  -2.62598   5.60529
C     0.98102  -1.29771   4.13914
C     0.25733  -1.19773   2.92668
C     0.36103   1.09263   2.95384
H     0.10263   2.01761   2.45307
C     1.38722  -0.09765   4.74997
H     1.94822  -0.13793   5.67346
C     1.06079   1.10061   4.16697
H     1.34866   2.03816   4.61551
Cl   -1.96779   1.33698  -0.20866
N    -2.34602  -3.18968  -0.42604
N    -0.97437  -2.26979   1.18211
N    -0.01468  -0.01447   2.35823
O     1.35958   0.92374   0.14408
