59

Zn    0.00000   0.00000   0.00000
O    -0.61314   0.42013  -1.94463
O    -0.37460  -1.62346  -1.24037
N    -1.59694   1.13202   0.92223
C    -1.91765   2.27642   0.05720
H    -2.79755   2.80281   0.46115
H    -2.16293   1.89579  -0.93469
C    -0.74507   3.23988  -0.04638
H    -1.02188   4.06611  -0.70276
H     0.10268   2.71991  -0.49560
C    -0.35868   3.75248   1.33442
H     0.53256   4.37634   1.26913
H    -1.16949   4.36148   1.74549
C    -0.09249   2.55793   2.24249
H     0.77354   2.01641   1.86337
H     0.12668   2.89229   3.25840
C    -1.31203   1.63939   2.27257
H    -2.18036   2.24462   2.59696
C    -1.17232   0.50237   3.29324
H    -0.96620   0.96771   4.26388
C    -2.49589  -0.25169   3.34575
H    -2.49126  -0.99817   4.13923
H    -3.32169   0.43458   3.54726
C    -2.66863  -0.89473   1.97391
H    -3.61943  -1.43810   1.93037
C    -2.75089   0.22306   0.93088
H    -2.84224  -0.20857  -0.06890
H    -3.66625   0.80262   1.13478
C    -1.54814  -1.91089   1.70919
H    -1.64263  -2.27143   0.67825
C    -1.68521  -3.13342   2.63091
H    -1.63282  -2.84090   3.68017
H    -2.66378  -3.58699   2.46117
C    -0.57870  -4.14321   2.35091
H    -0.67364  -5.00166   3.01911
H    -0.66097  -4.50218   1.32291
C     0.76678  -3.45450   2.53993
H     1.58348  -4.13391   2.29332
H     0.89053  -3.15679   3.58309
C     0.84509  -2.24796   1.60889
H     1.79653  -1.72809   1.73107
H     0.78593  -2.60748   0.57968
N    -0.23245  -1.26073   1.78762
C    -0.04424  -0.49521   3.02182
H     0.90807   0.03146   2.93448
H     0.01958  -1.16215   3.89151
C    -0.85732  -1.31646  -3.54481
C    -0.82999  -2.68330  -3.80038
H    -0.61356  -3.36046  -2.98812
C    -1.07242  -3.14994  -5.07862
H    -1.04962  -4.21111  -5.27959
C    -1.34276  -2.25635  -6.10307
H    -1.53133  -2.62317  -7.10170
C    -1.36872  -0.89360  -5.85092
H    -1.57606  -0.20031  -6.65289
C    -1.12593  -0.42123  -4.57480
H    -1.13442   0.63561  -4.35555
C    -0.59427  -0.81111  -2.17253
O     1.58936   0.41800   0.14741
