69

Zn    0.00000   0.00000   0.00000
N    -4.26862   3.22705  -4.72390
C     0.95748   2.43631   0.00789
O    -0.34715   2.23427   0.00967
O     1.72187   1.49336   0.00636
C     1.22316   3.87734   0.00832
O    -4.01901   3.21359   0.00922
C     2.41311   4.58740   0.00781
H     3.35864   4.06893   0.00694
C     2.33303   5.96956   0.00823
H     3.23822   6.55735   0.00781
C     1.10055   6.61329   0.00915
H     1.06886   7.69258   0.00951
C    -0.08930   5.89964   0.00964
H    -1.04422   6.40187   0.01038
C    -0.01507   4.52147   0.00925
C    -1.11431   3.49872   0.00951
C    -1.95810   3.51020  -1.23065
C    -3.33381   3.31466  -1.16324
C    -4.09727   3.23989  -2.31894
H    -5.15647   3.10727  -2.18195
C    -3.51611   3.32504  -3.58885
C    -2.12273   3.52362  -3.63985
H    -1.60768   3.58469  -4.58251
C    -1.37627   3.61001  -2.49105
H    -0.30633   3.74290  -2.56568
C    -3.70987   3.45814  -6.03728
H    -2.96865   4.25873  -5.98210
H    -4.51653   3.80999  -6.68690
C    -3.08434   2.19946  -6.64162
H    -2.66358   2.42282  -7.61853
H    -3.83465   1.42100  -6.75777
H    -2.29721   1.81634  -5.99809
C    -5.65310   2.81264  -4.68828
H    -5.79995   2.09479  -3.87801
H    -5.87545   2.29392  -5.62478
C    -6.61253   3.99363  -4.52727
H    -7.64060   3.64123  -4.51227
H    -6.49692   4.69024  -5.35432
H    -6.41011   4.52761  -3.60291
O    -2.36192   0.13596   0.00498
H    -2.67011  -0.33555   0.78617
N    -4.26971   3.22879   4.74224
C    -1.95839   3.51068   1.24942
C    -3.33411   3.31510   1.18175
C    -4.09780   3.24077   2.33732
H    -5.15697   3.10804   2.20016
C    -3.51695   3.32651   3.60733
C    -2.12361   3.52533   3.65858
H    -1.60885   3.58710   4.60136
C    -1.37689   3.61124   2.50989
H    -0.30697   3.74439   2.58463
C    -3.71145   3.46085   6.05565
H    -2.97039   4.26157   6.00023
H    -4.51839   3.81290   6.70480
C    -3.08585   2.20268   6.66103
H    -2.66576   2.42670   7.63808
H    -3.83596   1.42403   6.77712
H    -2.29818   1.81951   6.01819
C    -5.65409   2.81408   4.70642
H    -5.80054   2.09587   3.89640
H    -5.87657   2.29569   5.64307
C    -6.61373   3.99479   4.54466
H    -7.64172   3.64214   4.52947
H    -6.49855   4.69174   5.37149
H    -6.41116   4.52846   3.62016
H    -2.67687  -0.33278  -0.77500
Cl   -0.12523  -0.55273   2.13215
O    -0.09488  -0.39387  -1.59949
