67

Pd    0.00000   0.00000   0.00000
P     0.53445  -1.47807   1.58025
C    -1.36071  -1.22053  -0.90169
H    -1.03626  -2.20919  -1.24602
C    -2.60530  -1.24784  -0.02866
H    -2.45903  -1.68071   0.96638
C    -3.72866  -1.93951  -0.81967
H    -4.57809  -2.15227  -0.16948
H    -3.38991  -2.88298  -1.24827
C    -4.08939  -0.89605  -1.89392
H    -3.97474  -1.28228  -2.90681
H    -5.11865  -0.55406  -1.78097
C    -3.11343   0.25450  -1.61020
H    -3.42008   1.19228  -2.07298
C    -3.03809   0.22444  -0.08241
H    -3.99925   0.40982   0.39667
H    -2.28138   0.91571   0.33674
C    -1.71205  -0.22482  -2.01548
H    -1.72309  -0.67679  -3.01635
C    -0.61240   0.83757  -1.99197
C     0.70111   0.41237  -2.29665
H     0.88097  -0.63472  -2.55589
C     1.73336   1.33556  -2.42485
H     2.73021   0.99014  -2.66815
C     1.50125   2.69470  -2.25403
C     0.20605   3.11399  -1.96490
H     0.01314   4.16631  -1.81758
C    -0.83184   2.21029  -1.82848
H    -1.82278   2.58404  -1.60907
C     2.61870   3.68291  -2.33081
H     3.44787   3.29507  -2.91773
H     2.97683   3.88774  -1.32117
H     2.27892   4.62095  -2.76351
C     2.28070  -1.93222   1.38039
C     3.02934  -1.25374   0.42343
H     2.56029  -0.46358  -0.16749
C     4.35952  -1.57733   0.22601
H     4.94143  -1.04432  -0.51132
C     4.94351  -2.58453   0.97615
H     5.98334  -2.83522   0.82684
C     4.19352  -3.28150   1.91093
H     4.64762  -4.07754   2.48313
C     2.86287  -2.96472   2.11155
H     2.26826  -3.52597   2.82047
C     0.29912  -0.84998   3.26608
C     1.18115  -1.05059   4.31807
H     2.09857  -1.59946   4.16501
C     0.89251  -0.51324   5.56121
H     1.58346  -0.65988   6.37833
C    -0.26590   0.21868   5.75694
H    -0.47976   0.63922   6.72820
C    -1.14105   0.43311   4.70317
H    -2.03301   1.02395   4.84932
C    -0.85561  -0.09400   3.45985
H    -1.50898   0.09899   2.61046
C    -0.24487  -3.12317   1.64452
C    -1.16910  -3.48116   2.61912
H    -1.40603  -2.79007   3.41701
C    -1.77895  -4.72269   2.57018
H    -2.49428  -4.99793   3.33141
C    -1.47632  -5.60874   1.55022
H    -1.95650  -6.57532   1.51432
C    -0.55638  -5.25557   0.57478
H    -0.31841  -5.94705  -0.22049
C     0.05355  -4.01750   0.61908
H     0.77542  -3.73146  -0.13700
O     0.75920   1.22018   0.81073
