57

Pt    0.00000   0.00000   0.00000
I     0.65462   2.57298  -0.78674
I    -1.32476  -0.57718  -2.30556
P     1.17862   0.26272   2.05174
F    -0.77216  -5.28830   0.94993
N    -1.85900   0.87024   0.70361
H    -1.75192   1.80253   1.11351
H    -2.38247   0.98994  -0.17355
C    -2.12963  -1.44458   1.40490
C    -0.93509  -1.69265   0.72446
C    -0.49293  -2.99025   0.55304
H     0.40539  -3.23540   0.00787
C    -1.22571  -4.03078   1.09724
C    -2.39251  -3.81177   1.80250
H    -2.93925  -4.64216   2.21879
C    -2.83666  -2.51154   1.94673
H    -3.74613  -2.32338   2.49611
C    -2.62036  -0.02243   1.59560
H    -2.41322   0.27914   2.63424
C    -4.11525   0.13762   1.31435
H    -4.35493  -0.25185   0.32631
H    -4.39393   1.18934   1.35990
H    -4.71028  -0.39701   2.04795
C     2.71665   1.22683   2.21597
C     3.51577   1.65370   1.16529
H     3.25699   1.44234   0.14131
C     4.67295   2.36875   1.42525
H     5.28217   2.70181   0.59953
C     5.04166   2.65385   2.72718
H     5.94231   3.21486   2.92549
C     4.25354   2.21480   3.78044
H     4.53953   2.42686   4.80000
C     3.09638   1.50564   3.53079
H     2.48601   1.16192   4.35561
C     1.63994  -1.34289   2.76074
C     2.97060  -1.75173   2.69545
H     3.71915  -1.09314   2.27807
C     3.33378  -3.00631   3.14784
H     4.36563  -3.31608   3.08485
C     2.37840  -3.86482   3.66619
H     2.66244  -4.84662   4.01261
C     1.05330  -3.46713   3.72593
H     0.30135  -4.13608   4.11740
C     0.67955  -2.21788   3.26618
H    -0.36322  -1.93494   3.29172
C     0.14236   1.12061   3.28779
C    -0.24911   0.57307   4.50557
H     0.07709  -0.41498   4.79311
C    -1.04026   1.30809   5.37199
H    -1.33787   0.87379   6.31492
C    -1.44180   2.59174   5.04139
H    -2.06406   3.15550   5.71954
C    -1.02228   3.15773   3.84816
H    -1.30378   4.16895   3.59517
C    -0.23113   2.42973   2.97918
H     0.12570   2.89054   2.06700
O     1.38973  -0.70298  -0.54496
