49

Au    0.00000   0.00000   0.00000
P     1.47033  -0.98001  -2.14766
S     2.24598   0.01898  -0.60283
C     2.84513  -1.59088  -3.17546
C     0.56252  -2.46404  -1.61767
C     0.40894  -0.08231  -3.32026
C     4.13524  -3.44647  -4.05853
C     3.49803   0.72198  -3.72956
H     2.67607   1.07912  -3.12464
C     3.71437  -0.65843  -3.83217
C     5.02446  -2.56138  -4.71188
C     0.12045  -0.71613  -4.52533
H     0.52872  -1.69931  -4.72337
C    -0.72538  -2.74940  -2.05237
H    -1.21509  -2.10959  -2.77186
C     4.79768  -1.13987  -4.60739
C     5.61267  -0.19519  -5.25162
H     6.44346  -0.52556  -5.85406
C     1.17927  -3.26742  -0.66012
H     2.17345  -3.01181  -0.31293
C     6.09095  -3.12192  -5.43273
H     6.79616  -2.48331  -5.93978
C     3.04922  -2.92961  -3.30319
H     2.38620  -3.64044  -2.82868
C     5.37877   1.15292  -5.13780
H     6.02290   1.85598  -5.64458
C     4.33033  -4.83496  -4.14954
H     3.63684  -5.48992  -3.64146
C     4.31390   1.61931  -4.36864
H     4.13421   2.67957  -4.27699
C     6.26633  -4.48227  -5.50580
H     7.09707  -4.88664  -6.06490
C    -0.68825  -0.08503  -5.45125
H    -0.92295  -0.57751  -6.38317
C    -0.89123   1.81356  -3.99042
H    -1.28307   2.79764  -3.78373
C     5.38151  -5.34923  -4.86270
H     5.52997  -6.41654  -4.92746
C    -0.77452  -4.65100  -0.58603
H    -1.30284  -5.49851  -0.17625
C    -0.08392   1.18796  -3.05766
H     0.16230   1.68194  -2.12570
C    -1.38860  -3.84576  -1.53064
H    -2.39550  -4.06010  -1.85413
C     0.51057  -4.36329  -0.15125
H     0.98576  -4.98502   0.59284
C    -1.19778   1.17586  -5.18133
H    -1.83349   1.66397  -5.90454
O    -1.63127  -0.18517   0.16483
