52

Rh    0.00000   0.00000   0.00000
Cl    1.79160  -0.55969   1.38077
Cl   -1.04764  -1.95697   0.53850
S     0.99602  -1.04186  -1.89395
S    -1.00877   0.81237   1.97397
S     1.11408   2.11375  -0.56732
C    -0.36203  -1.89392  -2.74163
H     0.06515  -2.65510  -3.38817
H    -0.87957  -1.13977  -3.32827
H    -1.04774  -2.31647  -2.01058
C     1.94734  -2.38712  -1.21540
C     3.28294  -2.11903  -0.94499
H     3.68449  -1.13908  -1.14987
C     4.07698  -3.10381  -0.38972
H     5.11098  -2.88966  -0.16580
C     3.54378  -4.35209  -0.11332
H     4.16229  -5.11912   0.32815
C     2.21323  -4.61142  -0.39254
H     1.78954  -5.57879  -0.16807
C     1.40523  -3.63254  -0.94522
H     0.36306  -3.83981  -1.12305
C    -2.80035   0.60595   1.79440
H    -3.28849   1.29568   2.47606
H    -3.00985  -0.42270   2.07423
H    -3.10509   0.76868   0.76406
C    -0.81130   2.57560   1.83941
C     0.26304   3.12518   2.52884
H     0.89598   2.47777   3.11673
C     0.51057   4.48204   2.44238
H     1.34610   4.91046   2.97497
C    -0.31461   5.28877   1.67511
H    -0.12255   6.34901   1.60804
C    -1.38274   4.73430   0.98984
H    -2.02208   5.36055   0.38569
C    -1.63734   3.37580   1.06496
H    -2.45160   2.94686   0.50343
C     0.60571   2.55717  -2.25003
H     1.25816   3.34881  -2.60628
H    -0.41631   2.91371  -2.16286
H     0.62759   1.69178  -2.90554
C     2.84124   1.73802  -0.75678
C     3.60110   1.77071   0.40693
H     3.12336   2.01133   1.34273
C     4.94978   1.47656   0.35324
H     5.53464   1.48681   1.25999
C     5.54788   1.17077  -0.85907
H     6.60228   0.94302  -0.90179
C     4.78931   1.15558  -2.01696
H     5.24874   0.91596  -2.96465
C     3.43240   1.43307  -1.97272
H     2.85353   1.39363  -2.88147
O    -1.27003   0.47852  -0.93837
