28

Au    0.00000   0.00000   0.00000
N     0.05017   1.07344   1.79838
N    -1.56965   1.80058  -0.30650
N    -2.21106  -1.71140   1.29703
N     2.22738   1.92334  -0.91532
C     0.82018   0.71429   2.80684
C     0.88795   1.44125   3.99227
C     0.12645   2.57856   4.11940
C    -0.70207   2.97601   3.05819
C    -1.51588   4.14308   3.12471
C    -2.30707   4.50540   2.08758
C    -2.35059   3.72638   0.89760
C    -3.15756   4.05873  -0.20501
C    -3.14750   3.25653  -1.32028
C    -2.32743   2.12380  -1.32478
C    -1.55672   2.56245   0.79425
C    -0.71417   2.17873   1.89055
C    -1.38686  -1.11905   0.76691
C     1.41761   1.16361  -0.63465
H     1.40787  -0.18231   2.67538
H     1.53467   1.10288   4.78521
H     0.15485   3.17109   5.02172
H    -1.48129   4.73128   4.02931
H    -2.92164   5.39165   2.14083
H    -3.77591   4.94346  -0.15882
H    -3.75410   3.48324  -2.18205
H    -2.28335   1.45994  -2.17765
O     0.01293  -0.87903  -1.39629
