30

Zr    0.00000   0.00000   0.00000
O    -1.15044  -1.12100   1.32069
C     0.24290  -1.37424   1.74475
C    -1.93346  -2.27219   1.05382
C     1.05031   1.56923   1.67973
C     1.35053   2.06754   0.39516
C     0.13689   2.46141  -0.21743
C    -0.90603   2.23747   0.71076
C    -0.34642   1.68057   1.87454
C     2.18716  -0.77741  -0.93834
C     1.66928   0.14226  -1.87939
C     0.50679  -0.41669  -2.44263
C     0.30876  -1.69121  -1.86717
C     1.35449  -1.92157  -0.95112
H     0.29911  -1.10558   2.81511
H     0.44594  -2.45479   1.66407
H    -1.43628  -2.92886   0.32256
H    -2.11697  -2.82993   1.98095
H    -2.88457  -1.92830   0.63964
H     1.77583   1.28422   2.43089
H     2.34748   2.25459   0.01547
H     0.03528   2.98039  -1.16552
H    -1.94181   2.52583   0.58079
H    -0.87981   1.47137   2.79383
H     3.13383  -0.69471  -0.41794
H     2.15774   1.04653  -2.22194
H    -0.07680   0.00561  -3.25147
H    -0.45121  -2.40293  -2.16863
H     1.57172  -2.86000  -0.45581
O    -1.48062   0.06785  -0.72503
