23

Pd    0.00000   0.00000   0.00000
Br   -0.37307   2.14640  -0.88757
N     0.18550  -1.92383   0.71812
N    -1.82842  -0.77244  -0.55651
C     1.24021  -2.44203   1.34606
H     2.08349  -1.78133   1.50752
C     1.28341  -3.75335   1.78106
H     2.16278  -4.12254   2.28225
C     0.18277  -4.56890   1.55704
H     0.17897  -5.59800   1.88098
C    -0.91386  -4.03587   0.90824
H    -1.77797  -4.65183   0.72361
C    -0.89545  -2.70308   0.49308
C    -2.01275  -2.06360  -0.20240
C    -3.20869  -2.72111  -0.49647
H    -3.34981  -3.74922  -0.20776
C    -4.21715  -2.04973  -1.15962
H    -5.14518  -2.54865  -1.39151
C    -4.00885  -0.72524  -1.51892
H    -4.76430  -0.15922  -2.03830
C    -2.80366  -0.12943  -1.19737
H    -2.61329   0.90315  -1.46448
O     1.48790   0.50682   0.50177
