43

Ni    0.00000   0.00000   0.00000
Cl    0.60019   1.45986  -1.39219
S     0.25296  -0.82460  -2.86359
O    -0.26058  -1.27253  -1.53285
C    -1.16668  -0.01723  -3.69364
H    -1.17525   1.02532  -3.39612
H    -2.07857  -0.50930  -3.37255
H    -1.03609  -0.09366  -4.76659
C     0.08939  -2.40587  -3.80785
H     0.78480  -3.11486  -3.37215
H     0.35010  -2.22473  -4.84384
H    -0.92135  -2.78620  -3.72199
O     3.41874  -0.24300  -0.11269
O    -3.71051   3.08704  -2.54419
H    -4.54293   3.42336  -2.90654
N    -0.15540  -1.48525   1.27723
N    -2.35029  -0.19972   0.35511
N     2.21934  -0.73312   0.31365
N    -4.07892   2.09294  -1.65932
C     0.94228  -2.10383   1.70467
C     0.87422  -3.17176   2.61873
H     1.78738  -3.64815   2.94064
C    -0.34430  -3.58255   3.09065
H    -0.42319  -4.39236   3.80138
C    -1.50980  -2.93174   2.64806
C    -1.35484  -1.87768   1.71817
C    -2.81044  -3.28419   3.10122
H    -2.89897  -4.09329   3.81156
C     2.22456  -1.62283   1.22437
H     3.13944  -2.01544   1.66351
C    -3.40049   0.46762  -0.08759
C    -4.71364   0.16193   0.32956
H    -5.52977   0.73906  -0.07313
C    -4.90854  -0.84856   1.23164
H    -5.89983  -1.10799   1.57596
C    -3.79810  -1.56027   1.72415
C    -2.52330  -1.18544   1.24162
C    -3.91003  -2.62288   2.66117
H    -4.89532  -2.89294   3.01270
C    -3.12594   1.53911  -1.02790
H    -2.07920   1.81827  -1.15125
H     3.18092   0.48806  -0.71305
O     0.08589   1.02674   1.28877
