44

Pd    0.00000   0.00000   0.00000
S    -0.54282   0.52661   2.18367
P     2.19387  -0.15089   0.42440
Cl   -2.22455   0.24656  -0.33017
C     3.29567  -1.00504  -0.73171
C     2.86736  -2.25859  -1.16654
H     1.92297  -2.64806  -0.80120
C     3.62779  -2.97263  -2.07088
H     3.29387  -3.94058  -2.41292
C     4.81234  -2.43481  -2.55189
H     5.40305  -2.98777  -3.26703
C     5.23250  -1.18472  -2.13013
H     6.14963  -0.76409  -2.51570
C     4.47657  -0.46304  -1.22172
H     4.79891   0.51851  -0.90445
C     2.80485   1.55988   0.50998
C     3.96289   1.92378   1.19098
H     4.53925   1.16981   1.71077
C     4.36107   3.24873   1.20364
H     5.25959   3.53470   1.73044
C     3.60954   4.20778   0.54218
H     3.92649   5.23984   0.55503
C     2.45177   3.84912  -0.13116
H     1.86753   4.60015  -0.64086
C     2.04433   2.52712  -0.14644
H     1.12873   2.22765  -0.67447
C     2.60552  -0.86653   2.05226
C     3.48779  -1.94043   2.14552
H     4.00881  -2.27375   1.25973
C     3.70688  -2.57919   3.35194
H     4.40136  -3.40375   3.40504
C     3.02777  -2.16337   4.48426
H     3.18233  -2.66378   5.42787
C     2.14663  -1.09985   4.40393
H     1.62250  -0.77310   5.29090
C     1.92826  -0.43361   3.20365
C     0.99694   0.73162   3.18926
H     1.47089   1.61663   2.75890
H     0.66148   0.96404   4.20069
C    -1.02134  -1.16765   2.62633
H    -0.21891  -1.86538   2.37785
H    -1.91082  -1.38214   2.03309
H    -1.25514  -1.21081   3.68719
O     0.25752  -0.35792  -1.58999
