16

Hg    0.00000   0.00000   0.00000
O    -2.60163   2.20657   4.88588
O    -1.28771  -2.51414   0.85392
H    -1.62535  -3.41105   0.97507
C    -2.49959   0.08591   3.81958
C    -1.68295   0.51888   2.76526
H    -1.38492   1.55891   2.76083
C    -1.28236  -0.35846   1.77844
C    -1.70821  -1.69219   1.84886
C    -2.51860  -2.13226   2.89152
H    -2.83554  -3.16581   2.92783
C    -2.91064  -1.24321   3.87192
H    -3.53898  -1.57996   4.68343
C    -2.90861   1.04293   4.85341
H    -3.55040   0.59789   5.63982
O     0.92704  -0.00158  -1.36495
