47

Pt    0.00000   0.00000   0.00000
Cl    1.71813  -0.74516  -1.21228
N    -0.13998   1.74697  -0.94900
N    -1.53037   0.76236   1.01686
O    -0.04329   5.97438  -3.63803
O    -1.74325   6.24977  -2.19100
O    -5.14254   3.86908   2.54451
O    -5.30054   2.09765   3.92193
C     0.63078   2.16565  -1.95521
H     1.40100   1.47459  -2.27478
C     0.46300   3.39661  -2.55251
H     1.09645   3.71681  -3.36395
C    -0.54996   4.24118  -2.09235
C    -1.35276   3.80670  -1.04692
H    -2.13902   4.44412  -0.67961
C    -1.12811   2.55204  -0.48945
C    -1.90872   1.99949   0.61214
C    -2.96540   2.65916   1.22845
H    -3.28056   3.64195   0.91708
C    -3.64276   2.04744   2.27488
C    -3.23755   0.77340   2.67808
H    -3.74077   0.26880   3.48556
C    -2.18322   0.17412   2.02201
H    -1.82960  -0.81311   2.29334
C    -0.73384   5.57685  -2.73337
C    -2.03175   7.55936  -2.71823
H    -1.82397   7.53792  -3.79567
C    -3.50715   7.82350  -2.45912
H    -4.11703   7.05347  -2.92441
H    -3.78411   8.78905  -2.87126
H    -3.70266   7.82460  -1.38986
C    -1.13043   8.58905  -2.04672
H    -0.08690   8.36393  -2.25348
H    -1.28914   8.57995  -0.97069
H    -1.35624   9.57929  -2.43094
C    -4.77073   2.78256   2.91763
C    -6.40373   2.69529   4.63013
H    -7.01722   3.23472   3.89685
C    -7.19149   1.55592   5.25824
H    -7.52274   0.85788   4.49383
H    -8.06061   1.95217   5.77453
H    -6.56761   1.02255   5.97082
C    -5.87417   3.67638   5.66987
H    -5.32071   4.47560   5.18265
H    -5.21620   3.16266   6.36718
H    -6.70417   4.11120   6.21881
O     0.04017  -1.41887   0.84125
