47

Zn    0.00000   0.00000   0.00000
I    -0.40825   0.64457   2.44946
N     1.99253  -0.71992  -0.06625
N     3.54249   2.09011   1.67426
O    -0.68170  -1.64362  -0.48918
O    -2.29446  -3.86170  -1.30433
C     1.28313  -2.97182  -0.68961
C    -0.13059  -2.76400  -0.76684
C    -0.93278  -3.88285  -1.18062
C    -0.35022  -5.10966  -1.40150
H    -0.99741  -5.92818  -1.67762
C     1.02714  -5.30724  -1.27464
H     1.44543  -6.28545  -1.45429
C     1.82613  -4.25339  -0.94662
H     2.89668  -4.38247  -0.86347
C     2.21465  -1.95004  -0.39516
H     3.26453  -2.26068  -0.48951
C     3.13267   0.15087   0.08521
H     2.98869   1.00340  -0.58830
H     4.05983  -0.35874  -0.21961
C     3.25101   0.63998   1.54005
H     4.04126   0.08554   2.04954
H     2.31147   0.44464   2.06368
C     2.40210   2.96171   1.28533
H     1.58714   2.78255   1.98949
H     2.05669   2.69826   0.28487
C     2.81896   4.42212   1.31957
H     3.62037   4.60236   0.59858
H     1.96513   5.02614   1.01701
C     3.27597   4.80449   2.72282
H     2.43788   4.71708   3.41488
H     3.62083   5.83729   2.74038
C     4.40075   3.87091   3.15962
H     5.28125   4.03062   2.53166
H     4.68824   4.07741   4.19012
C     3.95409   2.41784   3.06037
H     3.09411   2.23609   3.70894
H     4.76549   1.75001   3.35803
C    -2.98611  -2.67445  -1.65279
H    -4.03359  -2.99015  -1.68211
H    -2.87320  -1.91113  -0.87751
C    -2.56664  -2.12036  -3.00939
H    -1.53910  -1.76496  -2.97761
H    -3.21282  -1.28931  -3.28019
H    -2.64179  -2.89359  -3.77152
H     4.32260   2.32472   1.04925
O     0.08809   1.23530  -1.09031
