58

Ru    0.00000   0.00000   0.00000
P     0.60223   2.18955  -0.08916
P    -2.10570   0.26220   0.81344
P    -0.01644  -2.22069  -0.53712
P     0.91797  -0.17926   2.01646
C    -0.17195   3.64404   0.74048
C     0.69415   2.83333  -1.79191
C     2.35034   2.43704   0.44633
C     2.61510   2.10843   1.91307
C     2.56914   0.61542   2.23413
C    -3.21894   1.39717  -0.08855
C    -3.25447  -1.15952   0.95816
C    -2.25000   0.94660   2.52246
C    -1.43456   0.15231   3.54063
C     0.05158   0.49756   3.50440
C    -1.46104  -3.16771  -1.15505
C     1.14135  -2.57333  -1.90704
C     0.60244  -3.40141   0.74451
C     1.76733  -2.81821   1.54015
C     1.30095  -1.87349   2.64643
H     1.39128  -0.10034  -0.65636
H    -0.24678   3.48259   1.81472
H    -1.17281   3.79569   0.33873
H     0.42811   4.53399   0.54890
H     1.28909   2.13561  -2.38177
H     1.13128   3.83268  -1.81566
H    -0.31474   2.84781  -2.20696
H     2.61415   3.48358   0.25337
H     2.96521   1.79943  -0.19622
H     3.61153   2.48050   2.17749
H     1.89646   2.64284   2.54015
H     3.25169   0.07534   1.56804
H     2.89325   0.45480   3.26999
H    -2.77223   2.38881  -0.14135
H    -4.19504   1.44993   0.39588
H    -3.31904   1.01363  -1.10494
H    -3.48946  -1.49195  -0.05262
H    -4.17230  -0.85667   1.46467
H    -2.78190  -1.97557   1.50473
H    -3.31048   0.93391   2.79756
H    -1.91924   1.98900   2.50425
H    -1.56256  -0.91749   3.34640
H    -1.82010   0.35338   4.54609
H     0.17546   1.58506   3.50589
H     0.55762   0.09634   4.39042
H    -2.16442  -3.37146  -0.35099
H    -1.11448  -4.11085  -1.57875
H    -1.94495  -2.57339  -1.93028
H     1.11788  -3.63179  -2.17086
H     2.14941  -2.27920  -1.61702
H     0.82988  -1.96591  -2.75756
H     0.91156  -4.31801   0.23126
H    -0.22467  -3.65332   1.41585
H     2.42390  -2.26781   0.85749
H     2.34782  -3.63287   1.98463
H     0.39508  -2.26883   3.11911
H     2.07223  -1.77706   3.41954
O    -0.67788   0.03232  -1.50397
