43

Ti    0.00000   0.00000   0.00000
Cl    0.86318  -1.12624  -1.65618
S    -0.70492   1.80143   1.98614
S     2.08736   1.81143  -0.19491
O    -0.77967   1.27340  -0.87167
O     1.07604  -0.49129   1.26040
C    -1.56195   2.28301  -0.56004
C    -1.66226   2.70587   0.78057
C    -2.51958   3.73111   1.14419
H    -2.61446   3.99727   2.18560
C    -3.25369   4.38972   0.17382
H    -3.91800   5.19174   0.45445
C    -3.14167   4.00643  -1.15569
H    -3.71864   4.51785  -1.91140
C    -2.31196   2.96784  -1.52542
H    -2.23240   2.64522  -2.55320
C     0.81405   2.86957   2.14678
H     1.48417   2.24886   2.75242
C     1.49114   3.24452   0.83759
H     0.77644   3.74298   0.17276
C     2.68635   4.15979   1.10483
H     3.42104   3.61208   1.69809
H     3.14460   4.42351   0.15117
C     2.27187   5.41627   1.86303
H     3.14879   6.04098   2.03649
H     1.56050   5.99057   1.26643
C     1.63084   5.02162   3.18634
H     1.31197   5.90903   3.73421
H     2.35695   4.48725   3.80197
C     0.42323   4.12926   2.92012
H    -0.31008   4.68698   2.33439
H    -0.04427   3.83097   3.85901
C     2.99684   0.85211   1.00534
C     2.31976  -0.23276   1.59788
C     3.01064  -1.00584   2.54052
H     2.48941  -1.83387   2.99813
C     4.32461  -0.71904   2.84878
H     4.84387  -1.32900   3.57247
C     4.98815   0.33163   2.23008
H     6.02078   0.53618   2.46488
C     4.32511   1.11183   1.29949
H     4.83310   1.91535   0.78891
O    -1.32793  -0.89995   0.38625
