49

Zr    0.00000   0.00000   0.00000
Cl   -1.19012  -0.56179   1.92111
Si    2.25117   0.49135  -2.20443
Si    2.88820  -1.09705   0.79989
C     1.93050   1.34807  -0.55080
C     2.20029   0.67714   0.69201
C     1.35697   1.21107   1.69209
H     1.38068   0.96699   2.74756
C     0.55714   2.23874   1.11062
C    -0.45204   3.06611   1.63798
H    -0.73234   2.98100   2.68029
C    -1.05551   3.97959   0.80977
H    -1.83870   4.61770   1.19125
C    -0.65858   4.11981  -0.53130
H    -1.14083   4.87063  -1.13931
C     0.32054   3.32867  -1.08018
H     0.62935   3.47052  -2.10551
C     0.92884   2.34100  -0.28370
C     0.02462  -1.37594  -2.06752
H    -0.43333  -1.08224  -3.00452
C     1.34871  -1.09703  -1.66066
C     1.60212  -1.76514  -0.41289
C     0.41419  -2.49893  -0.07980
C     0.09047  -3.37452   0.97311
H     0.83299  -3.64065   1.71106
C    -1.17745  -3.89801   1.04060
H    -1.43900  -4.55952   1.85312
C    -2.15346  -3.59575   0.07527
H    -3.14011  -4.02213   0.17975
C    -1.86563  -2.79028  -0.99852
H    -2.60519  -2.58467  -1.76209
C    -0.57554  -2.23683  -1.10182
C     1.19970   1.22594  -3.61871
H     1.60211   2.17492  -3.95650
H     0.16857   1.38282  -3.30599
H     1.19520   0.56114  -4.47727
C     4.07856   0.34915  -2.73319
H     4.29057  -0.62097  -3.16874
H     4.75701   0.50432  -1.90332
H     4.30156   1.09925  -3.48368
C     2.56654  -1.67125   2.59205
H     2.86599  -2.70402   2.73468
H     1.51370  -1.58066   2.85481
H     3.14287  -1.07529   3.29335
C     4.71379  -1.37703   0.32480
H     4.83694  -1.56622  -0.73438
H     5.10380  -2.23607   0.85943
H     5.32561  -0.52185   0.59022
O    -1.30204   0.65441  -0.77391
