55

Rh    0.00000   0.00000   0.00000
O     0.96896   0.86288  -1.91675
O    -1.23844  -1.23128  -1.14263
N    -1.59484   1.22733  -0.15596
C    -3.50701  -1.38896  -1.79728
C    -4.75640  -0.78771  -1.85892
C    -4.98345   0.48497  -1.38200
C    -3.93079   1.21256  -0.81264
C    -4.04352   2.52843  -0.31736
C    -2.94195   3.15311   0.20159
C    -1.72550   2.46412   0.27657
C    -2.65222   0.59995  -0.71942
C    -2.41899  -0.72217  -1.22751
P    -0.66124  -0.61176   2.03961
C     0.99917   1.12073   1.37301
C     0.51799   0.64744   2.61334
C     0.96499   1.15344   3.81755
F     0.46700   0.71337   4.98556
C     1.93280   2.15528   3.81521
F     2.37652   2.67038   4.97100
C     2.43611   2.62987   2.60722
F     3.36326   3.59418   2.61496
C     1.96536   2.11022   1.40302
F     2.46146   2.59677   0.24155
C    -0.42780  -2.25367   2.75885
C    -0.29518  -2.40704   4.13516
C    -0.14643  -3.67805   4.65916
C    -0.14072  -4.78222   3.82082
C    -0.29017  -4.62432   2.45229
C    -0.43483  -3.35875   1.91388
C    -2.34259  -0.11768   2.49141
C    -3.36995  -0.96329   2.07808
C    -4.68607  -0.58005   2.24687
C    -4.97948   0.64407   2.82827
C    -3.95853   1.48162   3.24631
C    -2.63728   1.10982   3.07120
H     1.73338   1.39539  -1.65415
H     1.32056   0.06232  -2.33492
H    -3.35243  -2.38073  -2.19262
H    -5.57344  -1.33886  -2.30219
H    -5.95972   0.93857  -1.45224
H    -4.99936   3.02931  -0.36195
H    -2.99147   4.16572   0.56945
H    -0.85458   2.93945   0.70694
H    -0.30455  -1.54490   4.78460
H    -0.03071  -3.80598   5.72498
H    -0.01643  -5.77042   4.23780
H    -0.28395  -5.48596   1.80249
H    -0.53393  -3.21883   0.84557
H    -3.12446  -1.91168   1.61790
H    -5.48272  -1.22952   1.91767
H    -6.00801   0.94630   2.95493
H    -4.19101   2.43214   3.70266
H    -1.83782   1.76623   3.38458
O     1.26091  -1.06328   0.04507
