55

Pt    0.00000   0.00000   0.00000
F    -1.90608  -0.47099  -0.32933
N     0.59296  -0.30523  -2.13214
N     0.33575  -2.19809  -0.15882
C    -0.33018   0.10693   2.02277
H    -0.05687   1.07100   2.44776
H     0.29157  -0.65960   2.49026
H    -1.38381  -0.09336   2.21782
C    -0.50053   1.98718  -0.12484
H    -1.17435   2.29992   0.67063
H    -1.02687   2.09806  -1.07558
H     0.39168   2.61278  -0.11146
C     0.96335   0.66121  -2.95810
H     0.54115   1.63905  -2.77316
C     1.84039   0.46210  -4.00632
H     2.10008   1.29959  -4.63304
C     2.39000  -0.80095  -4.22342
C     1.97841  -1.80808  -3.36040
H     2.37152  -2.80645  -3.44691
C     1.08091  -1.53155  -2.33260
C     0.63207  -2.58180  -1.40158
C     0.50126  -3.90624  -1.81291
H     0.72553  -4.15331  -2.83649
C     0.05164  -4.87581  -0.92610
C    -0.25109  -4.44170   0.36417
H    -0.61474  -5.12647   1.11291
C    -0.09872  -3.10968   0.69692
H    -0.33637  -2.76012   1.69173
C     3.39116  -1.01861  -5.34080
C     3.85520  -2.47395  -5.43780
H     4.35074  -2.78992  -4.52273
H     4.56862  -2.57112  -6.25298
H     3.01967  -3.13974  -5.64373
C     2.74187  -0.62566  -6.67543
H     1.84493  -1.21688  -6.84954
H     3.43701  -0.80614  -7.49203
H     2.46725   0.42523  -6.69110
C     4.61545  -0.13240  -5.07122
H     4.34727   0.92023  -5.05594
H     5.36188  -0.28372  -5.84754
H     5.05934  -0.38398  -4.11041
C    -0.13223  -6.33214  -1.30656
C    -1.62055  -6.68364  -1.16943
H    -1.78278  -7.72363  -1.44317
H    -2.21888  -6.05601  -1.82665
H    -1.97010  -6.53997  -0.15076
C     0.70295  -7.20493  -0.35888
H     0.59944  -8.25190  -0.63407
H     0.38412  -7.09404   0.67363
H     1.75500  -6.93443  -0.42366
C     0.30751  -6.62373  -2.74365
H     1.35857  -6.38287  -2.88884
H    -0.29226  -6.06610  -3.45950
H     0.17568  -7.68287  -2.95299
O     1.60854   0.30202   0.20946
