62

Pt    0.00000   0.00000   0.00000
O    -2.42078   1.87081   0.85436
N    -1.10924   0.23112   1.66992
H    -0.97843  -0.36533   2.47835
N     0.19692   2.16694  -0.22481
N    -1.57530   0.45905  -1.44772
C    -0.34536  -2.02530   0.10127
H     0.11864  -2.52367   0.95164
H     0.04478  -2.46981  -0.81526
H    -1.42298  -2.19782   0.15914
C     1.71151  -0.24398   1.11533
H     2.47595   0.34098   0.59977
H     2.05968  -1.27412   1.15913
H     1.58998   0.12944   2.13395
C    -2.10858   1.09630   1.75765
C    -2.87054   1.08758   3.08273
H    -3.63713   1.85702   3.06209
H    -2.18844   1.27829   3.90880
H    -3.33990   0.11732   3.23220
C     0.85649   3.00451   0.55425
H     1.57157   2.56537   1.23673
C     0.67154   4.37609   0.52502
H     1.24892   4.99053   1.19457
C    -0.26306   4.92176  -0.34845
C    -0.94643   4.02483  -1.16291
H    -1.70985   4.37882  -1.83543
C    -0.69821   2.65934  -1.08394
C    -1.43026   1.69659  -1.92383
C    -1.95588   2.06927  -3.15898
H    -1.76507   3.06380  -3.52338
C    -2.67880   1.16348  -3.92311
C    -2.84570  -0.10804  -3.37789
H    -3.40187  -0.87169  -3.89730
C    -2.27125  -0.41203  -2.15862
H    -2.37983  -1.40216  -1.73839
C    -0.56458   6.40608  -0.43402
C    -2.03581   6.62716  -0.05632
H    -2.22609   6.25496   0.94775
H    -2.70372   6.10970  -0.73908
H    -2.27197   7.68866  -0.08413
C     0.31023   7.23370   0.51077
H     1.36520   7.11281   0.27502
H     0.14035   6.95336   1.54754
H     0.06121   8.28732   0.40426
C    -0.31293   6.88595  -1.87062
H    -0.49804   7.95533  -1.94204
H    -0.96414   6.38229  -2.57955
H     0.71914   6.69529  -2.15792
C    -3.26415   1.49727  -5.28215
C    -4.78446   1.28995  -5.23135
H    -5.03798   0.25825  -5.00467
H    -5.22595   1.54484  -6.19211
H    -5.22760   1.92633  -4.46809
C    -2.98672   2.94276  -5.70231
H    -3.42642   3.64642  -4.99875
H    -3.42935   3.12616  -6.67897
H    -1.91822   3.13051  -5.77943
C    -2.64155   0.55889  -6.32543
H    -1.55995   0.67457  -6.33871
H    -3.02690   0.79449  -7.31489
H    -2.86971  -0.48106  -6.10948
O     0.89102  -0.17189  -1.37806
