25

Pd    0.00000   0.00000   0.00000
Cl   -1.74755   0.28874  -1.32085
N    -0.14662  -2.01801  -0.03676
N     1.57968  -0.40302   1.19843
C    -1.01888  -2.79256  -0.66243
H    -1.77410  -2.28065  -1.24835
C    -0.97520  -4.18480  -0.57776
H    -1.71135  -4.76748  -1.10794
C     0.00094  -4.79729   0.17712
H     0.05505  -5.87251   0.25775
C     0.93934  -3.99917   0.85090
C     1.99203  -4.51827   1.65894
H     2.07209  -5.59040   1.75883
C     2.87020  -3.69725   2.28619
H     3.66419  -4.10196   2.89582
C     2.77735  -2.28054   2.16422
C     3.65550  -1.38014   2.78849
H     4.45962  -1.75467   3.40384
C     3.46926  -0.02831   2.59964
H     4.12494   0.69056   3.06425
C     2.42068   0.42486   1.79808
H     2.24757   1.48196   1.63010
C     1.74483  -1.73675   1.37098
C     0.82186  -2.59999   0.71104
O     0.21008   1.63361   0.09849
