60

N     1.54686  -1.98255  -1.41396
P     0.24212  -2.25691  -0.32721
P     1.70880  -0.27510  -1.50523
Cl   -1.66417  -0.10830   1.53188
Pt    0.00000   0.00000   0.00000
C     2.24377  -2.94860  -2.24463
H     2.62717  -2.41727  -3.12299
H     1.52929  -3.70246  -2.59657
C     3.40561  -3.64237  -1.53220
H     3.01744  -4.23826  -0.70430
H     4.07154  -2.88310  -1.11696
C     4.17918  -4.53674  -2.49225
H     4.99510  -5.03236  -1.97302
H     4.59656  -3.95155  -3.30869
H     3.52777  -5.29827  -2.91521
C    -0.93450  -3.20021  -1.33465
C    -0.78043  -4.54837  -1.64276
H     0.02551  -5.11770  -1.19987
C    -1.67500  -5.15691  -2.50589
H    -1.56012  -6.20360  -2.74732
C    -2.71701  -4.42874  -3.05889
H    -3.41289  -4.91272  -3.72797
C    -2.87174  -3.08555  -2.75269
H    -3.68728  -2.52228  -3.18053
C    -1.97906  -2.47063  -1.89433
H    -2.08137  -1.42175  -1.63246
C     0.85370  -3.37934   0.95399
C     2.09967  -3.11745   1.51960
H     2.70573  -2.31664   1.11496
C     2.54814  -3.87292   2.58529
H     3.51838  -3.67521   3.01651
C     1.74542  -4.87505   3.10976
H     2.09464  -5.46293   3.94541
C     0.48800  -5.10890   2.57750
H    -0.14527  -5.87311   3.00312
C     0.03434  -4.35787   1.50760
H    -0.95554  -4.52055   1.10507
C     3.41784   0.02030  -0.96715
C     4.53268  -0.21240  -1.76571
H     4.40777  -0.51004  -2.79777
C     5.79919  -0.05532  -1.23193
H     6.66782  -0.23603  -1.84822
C     5.95633   0.33292   0.09004
H     6.94861   0.45554   0.49812
C     4.84656   0.56831   0.88621
H     4.97121   0.87665   1.91328
C     3.57783   0.41018   0.35874
H     2.69166   0.59902   0.95847
C     1.66622   0.12025  -3.27049
C     0.80813  -0.57837  -4.11630
H     0.23330  -1.40900  -3.72675
C     0.69185  -0.20535  -5.44191
H     0.03336  -0.75364  -6.09939
C     1.41011   0.87827  -5.92364
H     1.31462   1.17025  -6.95873
C     2.23705   1.59763  -5.07541
H     2.77973   2.45381  -5.44748
C     2.36219   1.22684  -3.74915
H     2.99060   1.79305  -3.07577
O     0.01386   1.64886   0.05974
