37

Zn    0.00000   0.00000   0.00000
Cl   -0.60400  -0.11747  -2.08647
N    -1.19473  -1.04517   1.33493
N    -1.29354  -2.05176   3.29749
H    -1.25783  -2.17816   4.29578
N     0.54417   3.45073   2.23405
H     0.85365   3.86280   3.09909
N    -0.05352   1.90471   0.77920
C    -1.37286  -2.39388   1.11578
C    -1.48810  -3.10968  -0.07000
H    -1.44191  -2.60932  -1.02422
C    -1.65680  -4.47448   0.03466
H    -1.74463  -5.06626  -0.86349
C    -1.71370  -5.11830   1.27335
H    -1.84286  -6.18963   1.30199
C    -1.60598  -4.42047   2.45960
H    -1.64702  -4.91773   3.41649
C    -1.43539  -3.04894   2.36107
C    -1.14466  -0.87893   2.63327
C    -0.99261   0.41838   3.34903
H    -1.10010   0.23002   4.41881
H    -1.80221   1.08314   3.03709
C     0.36664   1.11079   3.09168
H     0.71724   1.58174   4.01080
H     1.10078   0.36096   2.77175
C     0.28541   2.13678   2.02359
C     0.37446   4.10923   1.03668
C     0.50988   5.43576   0.66051
H     0.80907   6.19578   1.36579
C     0.24686   5.73527  -0.66173
H     0.34236   6.75616  -0.99913
C    -0.13705   4.75108  -1.57586
H    -0.32831   5.03752  -2.59851
C    -0.27437   3.42855  -1.20825
H    -0.56486   2.66190  -1.90845
C    -0.01093   3.11187   0.11883
O     1.41095  -0.56760   0.63996
