36

Mn    0.00000   0.00000   0.00000
O     1.42415   0.83129  -0.68816
C     1.83287   2.03821  -0.51048
C     3.18014   2.37913  -0.78300
C     3.62328   3.66799  -0.66285
C     2.74650   4.69481  -0.28823
C     1.43465   4.40731  -0.02610
C     0.94360   3.08899  -0.10452
C    -0.42069   2.81338   0.15069
N    -0.93382   1.61094   0.18921
C    -2.38184   1.49594   0.23335
C    -2.74178   0.24322   1.03503
N    -1.66625  -0.72464   0.88408
C    -1.88683  -1.92065   1.31423
C    -0.87602  -2.93086   1.39955
C    -1.17815  -4.23259   1.81147
C    -0.18610  -5.17821   1.94739
C     1.13797  -4.83457   1.68959
C     1.47088  -3.55611   1.29853
C     0.47653  -2.58144   1.12768
O     0.77994  -1.37264   0.74232
H     3.84430   1.58168  -1.08102
H     4.65793   3.90081  -0.86768
H     3.11005   5.70802  -0.21117
H     0.74977   5.19272   0.26164
H    -1.08054   3.66907   0.29719
H    -2.84859   2.39046   0.66149
H    -2.71795   1.36717  -0.80457
H    -3.69463  -0.17672   0.69588
H    -2.82776   0.49570   2.09974
H    -2.87602  -2.18330   1.69617
H    -2.20823  -4.48808   2.01466
H    -0.43213  -6.18272   2.25499
H     1.91474  -5.57703   1.79693
H     2.49469  -3.28232   1.09183
O    -0.65827  -0.25180  -1.49190
