52

Rh    0.00000   0.00000   0.00000
S    -1.72614  -1.54998   0.63826
O     0.27717  -3.16826   4.36090
N    -1.74515  -3.33028   2.65598
H    -1.20429  -3.62953   3.48195
N    -0.15521  -1.65855   2.70385
H     0.01810  -0.67778   2.38613
C    -2.79465  -4.17494   2.30023
C    -1.23186  -2.23977   2.08245
C    -3.75040  -3.87843   1.33346
H    -3.71179  -2.94691   0.79644
C     2.25228  -1.31284   5.36674
H     1.72159  -1.86630   6.12665
C    -4.83914  -5.98271   1.75805
H    -5.63200  -6.68306   1.54428
C     1.77643  -1.34220   4.05863
C     0.57445  -2.14852   3.75328
C     3.58903   0.07612   3.37524
H     4.11940   0.61066   2.60094
C    -4.76230  -4.78460   1.06995
H    -5.49977  -4.54514   0.31879
C     2.45881  -0.65250   3.05806
H     2.11931  -0.70278   2.03013
C    -2.88085  -5.37920   3.00195
H    -2.14433  -5.60349   3.76033
C    -3.89412  -6.27524   2.72905
H    -3.94803  -7.20437   3.27628
C     1.84642   1.03353  -0.26890
H     2.12030   1.50138   0.67634
C    -0.15194   0.38612  -2.96757
H    -1.16359   0.78711  -3.06856
H     0.14204  -0.00380  -3.94815
C     3.37682  -0.57248   5.67818
H     3.73531  -0.53945   6.69603
C     4.04308   0.12570   4.68408
H     4.92136   0.70496   4.92759
C     2.90649   0.11400  -0.83198
H     3.44293  -0.34638   0.00100
H     3.63537   0.71090  -1.39070
C     2.32849  -0.99518  -1.73306
H     2.36349  -0.69188  -2.78021
H     2.94971  -1.88746  -1.63564
C     0.89917  -1.34841  -1.37491
H     0.76618  -2.36110  -0.99103
C     0.87405   1.66140  -1.03770
H     0.40479   2.55667  -0.63041
C    -0.20659  -0.74796  -1.97164
H    -1.12333  -1.33409  -2.03925
C     0.79447   1.52353  -2.54147
H     1.79742   1.35464  -2.93551
H     0.43187   2.46114  -2.96666
O    -0.28896   0.90430   1.34954
