36

Hg    0.00000   0.00000   0.00000
O     2.66433   1.28355  -0.59864
O    -7.39539   3.77133   1.92651
O    -7.67965   1.64082   1.99914
N     0.32894   2.37623  -0.06329
N    -0.83232   2.75638   0.23411
N    -1.66518   1.81561   0.43771
N    -6.99448   2.62849   1.82209
C     1.37005   3.22985  -0.32529
C     2.62339   2.64119  -0.61616
C     3.70258   3.46913  -0.89218
H     4.67005   3.05151  -1.11971
C     3.55083   4.84719  -0.87972
H     4.40415   5.47104  -1.09654
C     2.32442   5.42323  -0.59268
H     2.21696   6.49649  -0.58418
C     1.23789   4.61867  -0.31738
H     0.27120   5.04144  -0.09272
C    -2.96567   2.06127   0.77573
C    -3.80568   0.95592   0.97747
H    -3.39246  -0.03678   0.85656
C    -5.12355   1.13898   1.32032
H    -5.78654   0.30232   1.47912
C    -5.62018   2.43340   1.46574
C    -4.79790   3.54155   1.26906
H    -5.21509   4.52972   1.39085
C    -3.47976   3.36007   0.92687
H    -2.82561   4.20321   0.77105
C     3.89679   0.62646  -0.85712
H     4.64690   0.95027  -0.12314
H     4.24717   0.88293  -1.86585
C     3.65654  -0.86781  -0.74427
H     4.58122  -1.40830  -0.92459
H     2.91407  -1.18387  -1.47478
H     3.29240  -1.11312   0.25201
O     0.24705  -1.62770  -0.10982
