29

C     2.43991  -1.61381  -1.07089
H     2.90472  -0.63815  -1.11614
C     3.04757  -2.71756  -1.63625
H     4.00036  -2.61615  -2.13081
C     2.40466  -3.95137  -1.57562
C     3.01526  -5.16746  -2.18551
H     3.41696  -4.93882  -3.17020
H     2.28947  -5.97147  -2.27319
H     3.84096  -5.51344  -1.56345
C     1.18237  -4.00364  -0.91708
H     0.64100  -4.93515  -0.86940
C     0.64500  -2.85028  -0.35506
N     1.27033  -1.67375  -0.45130
Zn    0.00000   0.00000   0.00000
C    -2.44000  -1.61384   1.07067
H    -2.90486  -0.63819   1.11584
C    -3.04763  -2.71757   1.63609
H    -4.00042  -2.61617   2.13064
C    -2.40466  -3.95136   1.57556
C    -3.01519  -5.16743   2.18556
H    -3.41692  -4.93872   3.17022
H    -2.28935  -5.97139   2.27333
H    -3.84087  -5.51352   1.56352
C    -1.18237  -4.00362   0.91702
H    -0.64096  -4.93512   0.86941
C    -0.64503  -2.85028   0.35494
N    -1.27040  -1.67376   0.45112
Br   -0.53970   0.73540  -2.16641
O     0.37892   0.51574   1.52083
