53

C    -1.44189  -5.55565  -1.27920
H    -2.23110  -6.19415  -0.86140
H    -1.57816  -5.49899  -2.36108
C    -0.07730  -6.15170  -0.93360
H     0.70428  -5.55886  -1.41298
H    -0.01687  -7.17272  -1.31548
C    -0.03454  -4.70793   1.10514
H     0.06558  -4.68496   2.19050
H     0.73410  -4.05678   0.68122
C     0.13507  -6.13026   0.57836
H     1.13004  -6.50726   0.82155
H    -0.59828  -6.78394   1.05704
C    -1.40486  -4.16865   0.70667
H    -2.19449  -4.76596   1.17864
H    -1.51259  -3.13107   1.02456
C     1.39697  -2.66807  -2.15047
H     1.29303  -2.12303  -1.20272
H     1.99593  -3.57195  -1.95802
C     2.11085  -1.80217  -3.18646
H     3.10533  -1.54352  -2.82053
H     1.54625  -0.87827  -3.32508
C     2.20565  -2.55863  -4.50883
H     2.83214  -3.44486  -4.37721
H     2.66993  -1.92876  -5.26882
C     0.81050  -2.98372  -4.95908
H     0.21297  -2.09554  -5.16906
H     0.86901  -3.58207  -5.87009
C     0.13189  -3.80031  -3.85861
H     0.70068  -4.72911  -3.70174
H    -0.88824  -4.05658  -4.14545
C    -2.51274  -1.65649  -3.62565
H    -1.48729  -1.29758  -3.73561
H    -3.09167  -0.86604  -3.12838
C    -3.14335  -1.97716  -4.97735
H    -3.17324  -1.07535  -5.59013
H    -2.53450  -2.72218  -5.49353
C    -4.55332  -2.52599  -4.76859
H    -4.98996  -2.81781  -5.72531
H    -5.18326  -1.74626  -4.33484
C    -4.51174  -3.72346  -3.82135
H    -3.94591  -4.53523  -4.28310
H    -5.52165  -4.08232  -3.61773
C    -3.83502  -3.32481  -2.51052
H    -4.42416  -2.53371  -2.02462
H    -3.77285  -4.17252  -1.82734
Cl    0.82644  -0.94699   1.88359
Hg    0.00000   0.00000   0.00000
O    -1.19798  -1.68104  -0.80982
P    -1.27317  -2.89271  -1.67259
N    -1.59918  -4.22590  -0.72917
N     0.08257  -3.03202  -2.63317
N    -2.49374  -2.86171  -2.80953
O     0.12674   0.94594  -1.34597
