31

Pt    0.00000   0.00000   0.00000
Cl    2.33467  -0.01918   0.02328
C    -0.03312   1.55807  -1.31819
C    -0.44152   4.04046   1.51563
C    -0.25236   2.74944   0.76730
C    -0.52651   3.97882  -1.32866
O    -0.05276   1.70183   1.39651
N    -0.31130   2.77135  -0.56372
H    -0.82035   1.43018  -2.07254
H     0.93796   1.66723  -1.82380
H    -0.76375   3.70386  -2.35409
H     0.36832   4.60710  -1.33536
H    -1.36003   4.55155  -0.92336
H     0.25787   4.79610   1.16600
H    -0.27696   3.85214   2.57291
H    -1.45673   4.40745   1.37680
C     0.03324  -1.55840  -1.31803
O     0.05281  -1.70219   1.39637
N     0.31150  -2.77178  -0.56373
H     0.82042  -1.43057  -2.07246
H    -0.93781  -1.66768  -1.82365
C     0.25255  -2.74985   0.76726
C     0.52668  -3.97926  -1.32867
C     0.44172  -4.04086   1.51562
H     0.76397  -3.70432  -2.35409
H    -0.36817  -4.60752  -1.33544
H     1.36014  -4.55207  -0.92336
H    -0.25742  -4.79660   1.16593
H     0.27694  -3.85263   2.57280
H     1.45691  -4.40773   1.37704
O    -1.64987   0.01216   0.01655
