53

Cu    0.00000   0.00000   0.00000
N     1.99083  -0.05863  -0.10957
C     2.79717   0.44021   0.82187
C     4.17973   0.39242   0.73281
C     5.05312   0.96650   1.80473
C     4.72893  -0.21104  -0.39380
C     3.89701  -0.73675  -1.37542
C     4.45731  -1.39136  -2.59753
C     2.52582  -0.63259  -1.18111
H     2.31763   0.89798   1.67648
H     4.45507   1.39507   2.60487
H     5.69473   1.74457   1.39334
H     5.80327  -0.27023  -0.50419
H     3.65682  -1.73793  -3.24464
H     5.07935  -0.68960  -3.15186
H     1.82085  -1.02009  -1.90466
N    -0.76480   1.83901  -0.10950
N    -0.76467  -1.11040   1.47008
H     5.69469   0.19285   2.22443
H     5.07929  -2.24170  -2.32053
C    -0.58625   2.77025   0.82189
C    -1.49183   2.13413  -1.18103
C    -0.58615  -0.85117   2.76141
C    -1.49170  -2.16589   1.12192
C    -1.12388   4.04489   0.73280
H     0.01245   2.48549   1.67650
C    -2.07808   3.37804  -1.37537
H    -1.60249   1.33730  -1.90455
C    -1.12382  -1.63168   3.77304
H     0.01256   0.01800   2.99798
C    -2.07799  -3.01698   2.04964
H    -1.60233  -2.32656   0.05768
C    -0.89892   5.06559   1.80468
C    -1.88354   4.34277  -0.39380
C    -2.88949   3.66805  -2.59747
C    -0.89891  -1.30508   5.21669
C    -1.88349  -2.73453   3.39665
C    -2.88939  -4.19497   1.61378
H    -0.28523   4.65969   2.60480
H    -1.85046   5.38914   2.22442
H    -0.40080   5.94247   1.39326
H    -2.32192   5.32538  -0.50421
H    -2.92786   2.79656  -3.24454
H    -3.90571   3.94595  -2.32044
H    -2.45568   4.49941  -3.15185
H    -0.28524  -0.41412   5.32224
H    -0.40080  -2.13349   5.71862
H    -1.85047  -1.13499   5.71858
H    -2.32191  -3.37096   4.15338
H    -2.92777  -4.25063   0.52977
H    -2.45558  -5.11715   1.99858
H    -3.90562  -4.11838   1.99863
O    -0.51049  -0.74078  -1.38317
