51

Zn    0.00000   0.00000   0.00000
Cl   -1.87006   0.46388   1.10278
O     2.39311  -2.65868  -2.42910
N     1.99383   0.07679  -3.87859
N     0.92094  -0.79569  -2.01515
N    -0.04141   1.63826  -1.37891
C     0.13438  -1.17075  -3.18880
H    -0.75052  -0.53158  -3.23088
H    -0.17526  -2.21204  -3.12436
N    -0.15714  -2.14270   0.04281
C     3.50225  -0.17588  -5.74232
H     2.78312  -0.79192  -6.25781
C     1.07502   2.70113  -3.18412
H     1.81593   2.64717  -3.96558
C     1.69029   0.34364  -2.48687
H     2.58667   0.46226  -1.86709
C     3.20772   0.33604  -4.47368
C     0.86744  -4.16538  -0.66519
H     1.62230  -4.64316  -1.26819
C     4.15952   1.15997  -3.86007
H     3.96338   1.59991  -2.89402
C    -0.77422   2.72896  -1.19446
H    -1.49893   2.67478  -0.39390
C     0.86629   1.61245  -2.34722
C     1.05722  -0.90487  -4.38764
H     1.57663  -1.82316  -4.68259
H     0.50212  -0.51218  -5.24614
C    -0.62670   3.86068  -1.97668
H    -1.23669   4.73021  -1.79311
C     0.75801  -2.78259  -0.67788
C     5.36306   1.42935  -4.48182
H     6.08091   2.06346  -3.98262
C     4.70828   0.10521  -6.35368
H     4.91062  -0.30545  -7.33223
C     0.31887   3.84497  -2.99041
H     0.46654   4.70819  -3.62201
C     5.65107   0.90351  -5.72952
H     6.59191   1.11993  -6.21107
C    -0.96135  -4.21780   0.86857
H    -1.66111  -4.74751   1.49449
C    -0.99800  -2.83555   0.79756
H    -1.71874  -2.24993   1.35113
C     3.79517  -2.48309  -2.45240
H     4.17395  -3.20547  -3.17354
H     4.23251  -2.68406  -1.46963
H     4.08063  -1.47700  -2.77279
C     1.70141  -1.90063  -1.46613
H     2.39830  -1.45821  -0.73716
C    -0.00930  -4.89403   0.12172
H     0.05209  -5.97170   0.15077
O     1.51418   0.25261   0.60494
