54

Zn    0.00000   0.00000   0.00000
Cl    1.76753  -0.28109   1.37893
O     2.08684  -3.24914  -1.90893
N    -0.78699  -2.00647  -0.14036
N     1.14617  -1.05020  -1.73565
N     2.88950  -0.59218  -3.20064
N     0.84436   1.56765  -1.21063
C    -0.24869  -4.24521  -0.72705
H     0.46562  -4.92898  -1.15624
C    -2.35353  -3.73971   0.27933
H    -3.31864  -4.03225   0.66012
C     2.32602  -0.22109  -1.91752
H     3.01766  -0.38320  -1.08322
C     0.05898  -2.89492  -0.65221
C     4.23112  -0.81943  -3.41450
C     1.39369  -2.33839  -1.09448
H     1.95931  -2.12318  -0.17429
C     1.17494   3.85562  -1.75365
H     0.84183   4.87714  -1.66680
C    -1.96416  -2.41125   0.31411
H    -2.60383  -1.63448   0.70939
C     5.20089  -0.38143  -2.50485
H     4.91385   0.14142  -1.60506
C     3.38856  -3.60477  -1.46226
H     3.31082  -4.15150  -0.51166
H     3.99581  -2.70635  -1.29337
C     0.61705  -1.16982  -3.09300
H     0.01419  -0.28457  -3.30803
H    -0.00331  -2.05927  -3.18464
C    -1.47766  -4.67330  -0.25251
H    -1.74526  -5.71851  -0.29731
C     2.31255   3.52861  -2.47576
H     2.89285   4.29402  -2.96898
C     6.54310  -0.60161  -2.74448
H     7.26835  -0.25950  -2.02088
C     1.85579  -1.22213  -3.99953
H     2.11694  -2.26140  -4.22418
H     1.69599  -0.67700  -4.93575
C     4.66872  -1.44408  -4.58802
H     3.95531  -1.75818  -5.33346
C     1.93130   1.24447  -1.90061
C     0.46831   2.83791  -1.13741
H    -0.43047   3.02669  -0.56685
C     6.96288  -1.24516  -3.89593
H     8.01282  -1.41379  -4.07772
C     2.69603   2.20051  -2.55619
H     3.57053   1.90166  -3.11189
C     4.03752  -4.47377  -2.52596
H     5.00490  -4.81890  -2.17355
H     4.18176  -3.90216  -3.43921
H     3.40796  -5.33257  -2.74280
C     6.01475  -1.65418  -4.81718
H     6.32319  -2.14347  -5.72975
O    -1.40234   0.76051   0.42139
