50

Ni    0.00000   0.00000   0.00000
Cl   -0.07751  -2.03952   0.37458
O    -3.59517   2.01072   0.37716
O    -1.05316  -0.52746  -2.19715
H    -1.05782  -1.47002  -1.97474
H    -0.22029  -0.38323  -2.66811
N     0.49625   0.48777   2.20352
N    -1.99625   0.34062   0.93915
N    -0.02047   1.91140  -0.25875
N    -2.96725   0.07353   3.10109
C     1.68968   0.20463   2.71373
H     2.52314   0.28222   2.02730
C     1.87134  -0.17838   4.03062
H     2.85776  -0.40907   4.40009
C     0.75699  -0.26332   4.85081
H     0.85418  -0.56264   5.88413
C    -0.48621   0.03800   4.32307
H    -1.38514  -0.02077   4.91392
C    -0.57473   0.40208   2.98563
C    -1.92153   0.75707   2.37522
H    -2.04336   1.84489   2.44356
C    -2.35103   1.41931   0.03146
H    -2.42756   0.97482  -0.97466
C    -1.22263   2.42503   0.00268
C    -1.41620   3.77795   0.22926
H    -2.40207   4.14385   0.46992
C    -0.32700   4.63092   0.15424
H    -0.44860   5.68946   0.32895
C     0.91284   4.09570  -0.15189
H     1.78630   4.72227  -0.23482
C     1.02197   2.72859  -0.34340
H     1.96936   2.26327  -0.58331
C    -2.97039  -0.76555   0.89780
H    -2.59935  -1.57944   0.27633
H    -3.93256  -0.40845   0.51616
C    -3.10303  -1.17132   2.36575
H    -4.04175  -1.67398   2.58887
H    -2.26789  -1.82207   2.64092
C    -4.19388   0.83549   3.28692
H    -4.99226   0.12298   3.50677
H    -4.47232   1.40255   2.38847
C    -4.04577   1.78915   4.46784
H    -4.97658   2.32695   4.62935
H    -3.25536   2.51410   4.28737
H    -3.80137   1.23343   5.36939
C    -4.39007   2.37910  -0.72480
H    -5.30978   2.79141  -0.31285
H    -4.62640   1.51263  -1.35244
H    -3.89558   3.13620  -1.34273
O     1.45152  -0.17687  -0.76439
