32

Pt    0.00000   0.00000   0.00000
Cl    1.78316  -0.92096   1.00355
N    -0.90830   0.52975   2.02246
C    -1.97866   1.50870   1.75641
C    -1.75987   2.31104   0.45546
C    -1.46091   1.38729  -0.70869
C    -1.95922   0.10064  -0.85863
C    -3.03473   3.10926   0.15221
C    -0.56953   3.27217   0.57814
C     0.05899   1.06160   2.98431
C    -1.44510  -0.71298   2.57732
C     0.95093  -0.28123  -1.78707
H    -2.07415   2.20600   2.59804
H    -2.93069   0.97836   1.67124
H    -2.91583   3.67187  -0.77007
H    -3.88903   2.44543   0.03863
H    -3.24282   3.81006   0.95778
H    -0.54956   3.94639  -0.27496
H    -0.63573   3.86967   1.48473
H     0.37007   2.71389   0.57567
H    -1.11269   1.91113  -1.59675
H    -2.00979  -0.33400  -1.85062
H    -2.68261  -0.30458  -0.16028
H     0.87544   0.35112   3.10469
H     0.47563   2.00133   2.63464
H    -0.41650   1.22661   3.96036
H    -0.62343  -1.41012   2.74069
H    -1.95207  -0.53679   3.53529
H    -2.15137  -1.17449   1.88769
H     0.29176  -0.53276  -2.62327
H     1.77759  -0.99428  -1.74344
O     0.91036   0.70750  -1.18034
