40

Re    0.00000   0.00000   0.00000
Cl    4.96561   2.82534   1.51278
N    -1.08695   1.29457  -1.40440
O    -1.43550  -2.58069  -0.91107
N     0.90483   1.96682   0.19840
O    -1.90052   0.50439   2.37894
C    -0.53821   2.50654  -1.62014
C    -2.08286   0.90672  -2.19614
H    -2.50456  -0.07002  -1.99729
N     4.24792   1.25184   3.41934
N     1.90601   2.50349   0.89381
C     3.39684   0.46183   4.10647
C    -0.91022  -1.63821  -0.52496
C     0.53845   2.85831  -0.71938
C     2.19005   3.75081   0.43765
H     2.95211   4.35606   0.88138
C     2.44323   1.82288   1.98668
C    -0.97558   3.34872  -2.63967
H    -0.49889   4.30497  -2.78147
N     1.60456   1.04423   2.62330
C     1.33338   4.01676  -0.59527
H     1.28554   4.90957  -1.18262
C    -2.57083   1.68416  -3.22992
H    -3.37464   1.31417  -3.84524
C     3.80605   1.90498   2.38989
C     2.04227   0.34185   3.68640
C     3.84582  -0.26575   5.22217
H     4.87592  -0.16214   5.52318
C    -2.00359   2.93022  -3.46066
H    -2.35450   3.55725  -4.26559
O     2.08198  -1.71426   1.51538
C     1.26944  -1.06950   1.02745
C     1.63637  -1.21367   5.45976
H     0.97648  -1.87711   5.99776
C     1.16880  -0.51444   4.38016
H     0.15243  -0.60075   4.03048
C     2.97152  -1.08765   5.88135
H     3.30776  -1.65581   6.73564
C    -1.20362   0.32100   1.48632
O     1.07410  -0.14846  -1.24369
