70

Zn    0.00000   0.00000   0.00000
Cl   -0.22412   1.96980   1.12362
N    -1.68764   0.25542  -1.46782
N     0.70024   1.25006  -1.58421
N     2.24995  -0.10423  -0.01927
C    -1.56561   1.27947  -2.21310
C    -0.24738   1.93481  -2.20453
C     0.01299   3.19900  -2.73190
H    -0.75637   3.76571  -3.23008
C     1.28246   3.72946  -2.56672
H     1.51123   4.71239  -2.95087
C     2.24899   3.01090  -1.88106
H     3.22682   3.43149  -1.71334
C     1.90916   1.75213  -1.38748
C     2.79514   0.90168  -0.57523
C    -2.64982   1.84842  -3.07550
H    -3.48868   1.15742  -3.12676
H    -2.27558   2.04218  -4.07926
H    -3.00429   2.78833  -2.65372
C     4.24298   1.26682  -0.46158
H     4.79793   0.45683   0.00707
H     4.35006   2.15931   0.15414
H     4.66309   1.47539  -1.44400
C    -2.86790  -0.48698  -1.35632
C    -2.87855  -1.77133  -1.91544
C    -4.02997  -2.53448  -1.81483
H    -4.04325  -3.52289  -2.25007
C    -5.14813  -2.05068  -1.15991
H    -6.04077  -2.65415  -1.09111
C    -5.10954  -0.80023  -0.57471
H    -5.97102  -0.42775  -0.03970
C    -3.97670  -0.00116  -0.65429
C    -1.67637  -2.29601  -2.64652
H    -0.77142  -1.96447  -2.13259
H    -1.69792  -3.38656  -2.62449
C    -1.64117  -1.82412  -4.10092
H    -0.79011  -2.26168  -4.61792
H    -1.55458  -0.74097  -4.15627
H    -2.55078  -2.12297  -4.61846
C    -3.93880   1.29181   0.11104
H    -4.87556   1.83571  -0.03987
H    -3.11523   1.92594  -0.21762
C    -3.74889   0.99979   1.60124
H    -3.69632   1.92971   2.16199
H    -2.81928   0.45564   1.75495
H    -4.56815   0.39703   1.98650
C     2.94489  -1.03794   0.75673
C     3.36745  -0.74951   2.05855
C     4.04080  -1.73529   2.76794
H     4.37453  -1.51613   3.77179
C     4.28260  -2.97809   2.21621
H     4.81275  -3.72921   2.78233
C     3.82148  -3.26290   0.94369
H     3.98191  -4.24182   0.51620
C     3.14307  -2.30930   0.20312
C     2.66215  -2.62107  -1.18523
H     1.70566  -2.12125  -1.35448
H     2.50267  -3.69703  -1.27036
C     3.66618  -2.17758  -2.25047
H     3.32108  -2.47103  -3.23942
H     4.63572  -2.63861  -2.07191
H     3.79263  -1.09704  -2.23944
C     3.01061   0.53639   2.74923
H     2.72512   1.30738   2.03335
H     3.86923   0.89703   3.32235
C     1.82932   0.29732   3.69237
H     1.53993   1.22734   4.17526
H     2.08353  -0.43619   4.45410
H     0.97629  -0.07509   3.12882
O    -0.36678  -1.47023   0.65299
