64

Zn    0.00000   0.00000   0.00000
Cl    1.87547   1.18308   0.50428
N     0.37877  -0.16820  -2.21793
N    -0.74316   1.77893  -0.90283
N    -1.36270   0.99188   1.50027
C     0.31430   0.94007  -2.83715
C    -0.22002   2.08451  -2.08011
C    -0.14763   3.41029  -2.50735
H     0.28419   3.66648  -3.46064
C    -0.61823   4.40080  -1.66079
H    -0.56634   5.43729  -1.95932
C    -1.13173   4.06073  -0.41978
H    -1.46926   4.82557   0.25994
C    -1.16960   2.71217  -0.06610
C    -1.61126   2.21210   1.24682
C     0.73235   1.15294  -4.25877
H     0.95194   0.19707  -4.72957
H     1.62612   1.77448  -4.29558
H    -0.05848   1.65526  -4.81342
C    -2.31232   3.15439   2.17520
H    -2.71850   2.60776   3.02366
H    -3.12011   3.66639   1.65498
H    -1.61274   3.90322   2.54459
C     0.88967  -1.34329  -2.78291
C    -0.01459  -2.36293  -3.10263
C     0.47457  -3.55258  -3.61228
H    -0.22323  -4.33790  -3.86504
C     1.83464  -3.76301  -3.79115
C     2.71054  -2.74387  -3.45073
H     3.77383  -2.89654  -3.57106
C     2.26558  -1.52866  -2.95161
C    -1.48158  -2.15065  -2.89704
H    -2.04927  -2.99247  -3.28402
H    -1.82247  -1.23798  -3.38631
H    -1.67796  -2.05670  -1.82911
C     2.34856  -5.07238  -4.30757
H     1.60344  -5.56581  -4.92717
H     2.58275  -5.73179  -3.47152
H     3.25722  -4.93166  -4.88896
C     3.25214  -0.46411  -2.57533
H     2.92914   0.07822  -1.68928
H     3.37853   0.25421  -3.38695
H     4.22211  -0.91009  -2.37043
C    -1.69063   0.36806   2.71068
C    -0.93235   0.58530   3.86527
C    -1.26316  -0.11916   5.01327
H    -0.67210   0.03563   5.90493
C    -2.32025  -1.01550   5.04536
C    -3.05542  -1.21226   3.88487
H    -3.87845  -1.91236   3.88855
C    -2.75251  -0.54359   2.71198
C     0.23297   1.52858   3.86811
H     0.78565   1.47339   2.93245
H     0.90992   1.28426   4.68276
H    -0.09949   2.55875   4.00517
C    -2.63866  -1.77910   6.29471
H    -3.69104  -2.05149   6.32666
H    -2.39570  -1.19574   7.18015
H    -2.05152  -2.69727   6.32476
C    -3.53759  -0.77611   1.45934
H    -3.90801   0.16112   1.04355
H    -4.38002  -1.43504   1.65078
H    -2.88899  -1.24281   0.71819
O    -0.24534  -1.58590   0.38371
