20

Mo    0.00000   0.00000   0.00000
Cl   -0.13418  -1.86859   1.48546
Cl    0.40831   1.82312  -1.50867
N    -1.68564   0.53693   0.35456
S    -3.15186   0.35408  -0.16200
N    -0.55144  -1.05158  -1.40154
S    -1.89677  -1.39981  -2.08560
N    -3.10661  -0.65167  -1.39721
N     2.01818  -0.78993  -0.61866
C     2.37985  -0.76339  -1.90075
C     3.58953  -1.26047  -2.35460
C     4.47086  -1.81779  -1.44214
C     4.09578  -1.85172  -0.10856
C     2.86745  -1.32814   0.25808
H     1.67117  -0.31864  -2.58826
H     3.83133  -1.20691  -3.40395
H     5.42299  -2.21439  -1.76066
H     4.74220  -2.27606   0.64292
H     2.55179  -1.34491   1.29608
O     0.90990   0.80544   1.11617
