22

Mo    0.00000   0.00000   0.00000
Cl   -0.17914  -1.87901   1.46191
Cl    1.31829   0.98842   1.54085
N    -1.64854   0.62110   0.35956
S    -3.12785   0.49965  -0.15933
N    -0.60116  -1.03412  -1.38783
S    -1.95857  -1.31183  -2.08357
N    -3.12836  -0.50567  -1.39070
O     2.01259  -0.83917  -0.63069
C     2.33495  -1.15173  -1.97846
C     3.85487  -1.34561  -1.98905
C     4.17753  -1.76987  -0.54550
C     2.82486  -1.68436   0.17674
H     1.81319  -2.07403  -2.27124
H     1.99494  -0.32320  -2.60409
H     4.35151  -0.40835  -2.23412
H     4.15279  -2.09476  -2.71862
H     4.89780  -1.08991  -0.09471
H     4.58109  -2.77860  -0.49453
H     2.35180  -2.67413   0.25348
H     2.89163  -1.23689   1.17315
O     0.38314   1.21938  -1.04347
