44

Ru    0.00000   0.00000   0.00000
Cl    0.81641  -1.33708  -1.77068
O    -1.75758   1.57627   1.50151
N    -0.62634   1.30149   1.08594
N     0.20494   1.85803  -1.33117
N     1.74427   0.52570   0.73223
N    -1.84276  -0.57075  -0.72892
C     1.45487   1.78376  -2.11182
C     1.65176   2.89131  -3.14691
C     0.24172   2.96848  -0.36526
C     0.36401   2.39839   1.07424
C    -0.95251   1.93404  -2.23118
C    -2.30794   1.68726  -1.55144
C     1.69924   1.74959   1.27854
C     2.77493   2.29012   1.95764
C     3.93455   1.53324   2.07162
C     3.96776   0.26737   1.50605
C     2.84708  -0.20645   0.84537
C    -2.65627   0.22894  -1.42454
C    -3.80830  -0.25579  -2.03173
C    -4.13549  -1.59550  -1.92199
C    -3.28237  -2.41612  -1.20474
C    -2.15140  -1.86431  -0.63184
H     1.47245   0.81026  -2.61208
H     2.28950   1.80596  -1.40597
H     0.96608   2.78576  -3.98276
H     2.66341   2.81998  -3.53718
H     1.52685   3.88323  -2.71592
H    -0.68119   3.55221  -0.41951
H     1.08450   3.63801  -0.55956
H     0.13294   3.16730   1.82065
H    -0.80547   1.17450  -3.00564
H    -0.98582   2.92213  -2.70972
H    -2.34377   2.13535  -0.55518
H    -3.07896   2.17273  -2.15229
H     2.70385   3.27492   2.39268
H     4.79034   1.92539   2.59839
H     4.84738  -0.35087   1.58139
H     2.81679  -1.18759   0.38751
H    -4.44138   0.41927  -2.58712
H    -5.02748  -1.98514  -2.38834
H    -3.47992  -3.46937  -1.08984
H    -1.46447  -2.48338  -0.06705
O     0.01523  -1.16625   1.16710
