36

Zn    0.00000   0.00000   0.00000
Cl   -1.99693  -0.87875  -0.38288
N     0.10155   1.47728  -1.51883
N    -0.35423   1.79214   1.13146
C    -0.31253   2.64924  -1.07399
C    -0.56884   3.73061  -1.94599
H    -0.90510   4.67187  -1.53927
C    -0.39357   3.55824  -3.29085
H    -0.58586   4.36329  -3.98549
C     0.04079   2.31038  -3.78230
C     0.23879   2.04146  -5.15049
H     0.05176   2.82806  -5.86679
C     0.65596   0.80398  -5.55745
H     0.80317   0.59985  -6.60729
C     0.89662  -0.21524  -4.61907
H     1.22482  -1.18342  -4.96481
C     0.71768   0.01012  -3.28312
H     0.89761  -0.76047  -2.54595
C     0.28284   1.27355  -2.83317
C    -0.50905   2.79251   0.35460
H    -0.81922   3.77574   0.71128
C    -0.49107   1.83998   2.50315
C    -0.77574   0.63881   3.16051
H    -0.90573  -0.25909   2.57093
C    -0.91356   0.60950   4.52987
H    -1.14445  -0.32251   5.02370
C    -0.74600   1.76478   5.29148
C    -0.43625   2.95326   4.63638
H    -0.28162   3.85335   5.21389
C    -0.31490   3.00167   3.26352
H    -0.03892   3.92957   2.78476
C    -0.86385   1.71100   6.78021
H    -0.94261   2.70815   7.20540
H     0.01627   1.22602   7.20292
H    -1.73434   1.12840   7.07467
O     1.45046  -0.68483   0.38686
