39

Zn    0.00000   0.00000   0.00000
Cl    1.47726  -0.66216   1.48362
N     1.10350   1.68924  -0.90112
H     1.01300   2.56547  -0.38370
H     2.06238   1.35895  -0.74476
N     0.86344   1.98023  -2.28243
H     0.41828   1.16699  -2.71092
N     0.29181  -1.34564  -1.77725
H    -0.12270  -2.25806  -1.55398
H     1.24833  -1.51824  -2.08631
N    -0.41513  -0.69165  -2.83734
H    -1.26856  -0.31226  -2.41868
C     2.03756   2.36771  -3.06533
C     2.66485   3.61938  -2.44513
H     1.89953   4.37633  -2.29390
H     3.42507   4.02261  -3.10817
H     3.13725   3.39985  -1.48961
C     1.50203   2.69588  -4.46048
H     1.06591   1.81072  -4.91658
H     2.30186   3.05833  -5.10003
H     0.73261   3.45854  -4.38850
C     3.07850   1.24089  -3.16785
H     3.49414   0.98218  -2.19475
H     3.90113   1.54932  -3.80707
H     2.62290   0.35041  -3.59660
C    -0.79529  -1.53350  -3.98291
C    -1.60553  -0.61717  -4.90177
H    -2.52427  -0.30843  -4.41004
H    -1.86010  -1.13342  -5.82303
H    -1.03196   0.27324  -5.14503
C     0.47384  -2.00240  -4.70076
H     1.09401  -1.14789  -4.96186
H     0.20956  -2.52724  -5.61427
H     1.05545  -2.68327  -4.08150
C    -1.65405  -2.73633  -3.56783
H    -1.06823  -3.49162  -3.04501
H    -2.08376  -3.20617  -4.44797
H    -2.46559  -2.41034  -2.91943
O    -1.63956   0.04219  -0.18041
