34

C     1.06806   3.72410   0.11619
H     1.33865   4.32901   0.98167
H     0.03434   3.39234   0.20484
H     1.18603   4.32306  -0.78769
C     3.76702   1.56077  -0.04421
H     4.81439   1.34707  -0.08164
C     1.56149   1.29556   0.00746
C     2.77215  -0.76186  -0.11543
C     3.87570  -1.59842  -0.18879
H     4.87534  -1.19843  -0.20214
C     3.64521  -2.96700  -0.24501
H     4.47991  -3.64634  -0.30321
C     2.35034  -3.46927  -0.22793
H     2.16038  -4.52823  -0.27234
C     1.30723  -2.55868  -0.15198
C    -0.76803  -4.00192  -0.14886
H    -0.34732  -4.98357  -0.20698
C    -0.95339  -1.79019  -0.04348
C    -3.43236  -1.79820   0.04143
H    -3.31795  -0.73232   0.23466
H    -4.00283  -2.26222   0.84557
H    -3.96097  -1.94555  -0.90151
C    -1.43721   1.16696   0.08727
I     0.13446  -0.15340   2.72998
N     3.26314   2.74400   0.01920
N     1.92204   2.57441   0.05037
N     2.77095   0.62421  -0.05510
N     1.52613  -1.24231  -0.09718
N    -0.05141  -2.83783  -0.12205
N    -2.02911  -3.74823  -0.09178
N    -2.13368  -2.40174  -0.02760
O    -2.32860   1.88947   0.14134
Ru    0.00000   0.00000   0.00000
O    -0.01799   0.04115  -1.64939
