70

Pd    0.00000   0.00000   0.00000
C     0.53356  -1.16289   1.62071
N    -1.92042  -0.31377   0.04197
C    -2.62984   0.33002  -0.83867
C    -1.95169   1.15233  -1.77789
N    -0.66588   1.17727  -1.70063
C    -2.56691  -1.15955   0.95534
C    -3.24620  -0.61519   2.05635
C    -3.84442  -1.49312   2.94744
C    -3.79429  -2.86019   2.74358
C    -3.11304  -3.38136   1.65997
C    -2.47492  -2.54524   0.75656
C    -3.23968   0.88336   2.28073
C    -1.87802   1.31263   2.84326
C    -4.36033   1.36427   3.20125
C    -1.69914  -3.07859  -0.42840
C    -2.60151  -3.13632  -1.66543
C    -1.07610  -4.44833  -0.16525
C     0.16956   1.91688  -2.53128
C     0.24756   3.31292  -2.40152
C     1.15100   3.98677  -3.20680
C     1.94043   3.30599  -4.11680
C     1.87593   1.92841  -4.20850
C     1.00668   1.20778  -3.40582
C    -0.55686   4.00340  -1.31873
C     0.08099   3.70430   0.04482
C    -0.68151   5.51269  -1.51732
C     0.90640  -0.30106  -3.45889
C    -0.19499  -0.71955  -4.43826
C     2.22993  -0.97212  -3.81678
H     1.12310  -0.56389   2.32216
H    -0.31890  -1.59600   2.15408
H     1.17540  -1.97296   1.25460
H    -3.71222   0.22032  -0.87986
H    -2.51152   1.69426  -2.54177
H    -4.36189  -1.11220   3.81237
H    -4.28191  -3.52382   3.44180
H    -3.07457  -4.44974   1.52369
H    -3.37666   1.38013   1.31265
H    -1.06664   1.09250   2.13346
H    -1.87749   2.38204   3.04251
H    -1.67335   0.78490   3.77207
H    -4.40052   2.45145   3.18693
H    -5.32471   0.98181   2.87351
H    -4.18543   1.05148   4.22754
H    -0.86800  -2.37308  -0.63691
H    -2.04630  -3.52234  -2.51736
H    -3.45137  -3.79103  -1.48064
H    -2.97890  -2.14842  -1.92238
H    -0.37667  -4.68991  -0.96238
H    -0.53364  -4.44475   0.77678
H    -1.83189  -5.22990  -0.13639
H     1.24949   5.05721  -3.12759
H     2.62686   3.85478  -4.74442
H     2.51960   1.41403  -4.90349
H    -1.57332   3.59065  -1.31715
H    -0.48543   4.18492   0.84026
H     0.11242   2.62241   0.24554
H     1.10329   4.07491   0.06805
H    -1.38225   5.91926  -0.79064
H     0.27574   6.00618  -1.36991
H    -1.04996   5.74419  -2.51457
H     0.62501  -0.65998  -2.44580
H    -1.15915  -0.30811  -4.14364
H     0.03837  -0.36194  -5.43963
H    -0.28006  -1.80380  -4.46994
H     2.14447  -2.04789  -3.67760
H     2.50437  -0.78901  -4.85307
H     3.01930  -0.60404  -3.16648
O     1.60387   0.36540  -0.12880
