44

Au    0.00000   0.00000   0.00000
C    -1.78971  -0.02785  -0.52843
O   -12.06460   0.24917  -4.21637
N    -2.89413  -0.02630  -0.89580
C   -10.77967   0.13345  -3.80927
C    -4.17490  -0.02007  -1.33401
C    -8.16902   0.03635  -2.78409
C    -6.79773   0.00797  -2.26908
C    -4.98153   1.09416  -1.10150
H    -4.57854   1.94169  -0.56816
C    -4.67684  -1.12471  -2.02245
H    -4.04347  -1.98333  -2.18624
C    -9.75574  -0.46231  -4.54151
H    -9.94498  -0.88891  -5.51379
C    -8.47401  -0.51055  -4.02726
H    -7.69027  -0.95484  -4.62292
C    -6.27850   1.09840  -1.56634
H    -6.89503   1.96938  -1.40568
C    -9.20375   0.62458  -2.05270
H    -9.00312   1.02990  -1.07227
C   -10.48499   0.66658  -2.55038
H   -11.28779   1.11328  -1.98557
C   -14.34712  -0.27255  -7.13532
H   -13.69870   0.17408  -7.89316
H   -14.25741  -1.35795  -7.22289
C   -12.42151  -0.20581  -5.50762
H   -12.29067  -1.29489  -5.57511
H   -11.78442   0.27159  -6.26495
C    -5.97530  -1.10128  -2.48248
H    -6.36776  -1.96229  -3.00137
C   -15.79213   0.13944  -7.40495
H   -15.87975   1.22451  -7.31506
H   -16.44281  -0.30815  -6.65055
C   -13.88018   0.16502  -5.75002
H   -13.98490   1.24625  -5.64567
H   -14.49491  -0.30442  -4.98060
C   -16.26022  -0.28913  -8.79378
H   -15.60213   0.15007  -9.54715
H   -16.18361  -1.37535  -8.88124
C   -17.69657   0.14124  -9.06443
H   -18.37202  -0.30364  -8.33701
H   -18.00870  -0.17058 -10.05826
H   -17.78915   1.22321  -8.99937
O     1.58832   0.03528   0.44553
