41

Au    0.00000   0.00000   0.00000
C    -1.80107   0.02841   0.48804
C    -4.21835   0.09015   1.18907
C    -4.77456  -0.99038   1.87395
H    -4.16682  -1.85696   2.08580
C    -6.09410  -0.93429   2.26683
H    -6.52918  -1.77659   2.78254
C    -6.88404   0.18343   1.98666
C    -6.30941   1.25060   1.29171
H    -6.90169   2.12794   1.08176
C    -4.99042   1.21441   0.89537
H    -4.54464   2.04364   0.36737
C    -8.28319   0.24091   2.41825
C    -8.66870  -0.25833   3.65888
H    -7.92521  -0.67937   4.31961
C    -9.98145  -0.19207   4.08638
H   -10.23400  -0.57755   5.06149
C   -10.95517   0.36920   3.26411
C   -10.57678   0.86245   2.01132
H   -11.34065   1.28746   1.37974
C    -9.26546   0.80605   1.60153
H    -8.99909   1.17829   0.62361
C   -12.72449   0.03345   4.83291
H   -12.20035   0.56714   5.63805
H   -12.53249  -1.04290   4.94284
C   -14.22178   0.31007   4.91160
H   -14.38653   1.37658   4.74954
H   -14.72000  -0.22933   4.10443
C   -14.80281  -0.10906   6.25869
H   -14.28783   0.42865   7.05843
H   -14.62905  -1.17664   6.41322
C   -16.30047   0.17529   6.34597
H   -16.47431   1.24114   6.18432
H   -16.81730  -0.36831   5.55243
C   -16.87422  -0.23249   7.69723
H   -16.72863  -1.29667   7.86891
H   -17.93970  -0.02101   7.73987
H   -16.38401   0.31324   8.50040
N    -2.91959   0.05002   0.80928
O   -12.26721   0.48536   3.57278
O     1.59349  -0.01208  -0.42796
