59

Pd    0.00000   0.00000   0.00000
S    -0.85368   1.33422  -1.70248
P     1.30555  -1.23701  -1.32960
Cl   -1.63306   0.89608   1.31376
C     0.52181   2.60620  -1.70636
C     0.70088  -2.95142  -1.10958
C    -1.02841  -4.42272  -0.32434
C    -0.34239  -5.50332  -0.85505
C     1.38345  -4.03655  -1.64610
C    -0.51075  -3.14532  -0.45056
O     0.98697  -0.96716  -2.90620
C    -2.71875   2.11135  -4.07856
C     3.77873  -1.65303  -0.22908
C    -0.87322   0.53419  -3.36944
C     3.10107  -1.41674  -1.42158
C     3.80039  -1.32050  -2.61869
C    -2.30772   0.64918  -3.91873
C     5.15236  -1.80938  -0.24191
C    -0.38800  -0.92034  -3.28342
C     0.09632   3.75503  -2.61068
C     1.85742   2.02345  -2.14028
C     0.86093  -5.31062  -1.51522
C     5.17475  -1.47947  -2.62145
C     0.59749   3.06585  -0.24993
C    -3.31060  -0.08158  -3.02633
C    -0.49414  -1.67311  -4.60668
C     5.85011  -1.72586  -1.43709
H    -1.96342  -4.57586   0.19343
H    -0.74419  -6.50020  -0.74994
H     2.32324  -3.87643  -2.15688
H    -1.04453  -2.29156  -0.00757
H    -3.69848   2.16811  -4.54572
H    -2.01328   2.64918  -4.70759
H    -2.77481   2.60040  -3.11040
H     3.21631  -1.70289   0.69357
H    -0.18566   1.10050  -4.00039
H     3.26669  -1.12779  -3.53668
H    -2.31706   0.19464  -4.91499
H     5.68033  -1.99516   0.68124
H    -0.99121  -1.44218  -2.52209
H     0.82263   4.56308  -2.54573
H    -0.87287   4.14131  -2.30581
H     0.03525   3.43971  -3.64955
H     2.60486   2.81608  -2.15446
H     1.81402   1.58591  -3.13533
H     2.19348   1.25717  -1.43356
H     1.39466  -6.15586  -1.92458
H     5.72075  -1.41154  -3.55131
H     1.28078   3.90925  -0.16298
H     0.96381   2.25252   0.40561
H    -0.38537   3.37339   0.10766
H    -3.17349  -1.15929  -3.06738
H    -4.32418   0.14096  -3.34952
H    -3.20631   0.24246  -1.99182
H     0.02107  -2.62528  -4.50266
H    -0.01735  -1.10689  -5.40320
H    -1.52893  -1.86756  -4.86787
H     6.92302  -1.84979  -1.44575
O     0.72525  -0.74182   1.28305
