44

Re    0.00000   0.00000   0.00000
O     0.87862  -0.20297   2.95305
O     2.84119   0.50091  -1.10500
O    -0.82192   2.96396   0.30389
N    -2.41708   0.34269  -3.67261
N    -2.55314  -1.80620  -2.75995
N    -0.96044  -0.26641  -1.93965
N     0.01236  -2.11430  -0.28522
N    -4.52416  -0.21003  -5.28190
N     0.38366   2.09115  -2.32989
C    -1.39547   0.59025  -2.86588
C    -3.00613  -0.83724  -3.55406
C    -1.55715  -1.47446  -1.95741
C    -0.72473   1.88542  -3.03600
C    -1.24811   2.82983  -3.91838
C    -0.58008   4.03429  -4.05467
C     0.57707   4.24638  -3.32009
C     1.01706   3.23787  -2.47213
C    -4.20326  -1.10703  -4.35380
C    -4.95985  -2.25535  -4.11741
C    -6.09261  -2.46599  -4.88395
C    -6.42558  -1.53154  -5.85192
C    -5.60248  -0.42146  -6.00574
C    -0.96912  -2.51259  -1.11112
C    -1.37627  -3.83929  -1.21319
C    -0.74963  -4.78901  -0.43047
C     0.27943  -4.38012   0.40797
C     0.62329  -3.04038   0.44732
C     0.59177  -0.08565   1.84963
C     1.79256   0.31867  -0.67920
C    -0.43499   1.89493   0.18982
H    -2.14953   2.60080  -4.46320
H    -0.95597   4.79572  -4.72224
H     1.12514   5.17208  -3.39872
H     1.91244   3.34908  -1.87629
H    -4.65551  -2.94279  -3.34515
H    -6.70602  -3.34164  -4.72812
H    -7.30032  -1.65669  -6.47093
H    -5.82034   0.33565  -6.74776
H    -2.17559  -4.08302  -1.89355
H    -1.05175  -5.82415  -0.47163
H     0.80127  -5.08574   1.03425
H     1.41454  -2.68991   1.09754
O    -1.56884  -0.33159   0.38894
