44

Re    0.00000   0.00000   0.00000
O    -1.18143  -0.18689  -2.85024
O    -2.74535   0.29410   1.37938
O     0.55437   3.02712  -0.32882
N     1.08373  -0.26064   1.89091
N     2.62674  -1.80997   2.78560
N     2.51450   0.36069   3.64156
N     0.12448  -2.12543   0.24907
N    -0.33456   2.05391   2.36250
N     4.61379  -0.16618   5.26587
C     1.65063  -1.47985   1.96004
C     1.50644   0.60514   2.82208
C     3.09074  -0.82975   3.55923
C     1.09219  -2.51750   1.09682
C     1.52595  -3.83639   1.18952
C     0.94171  -4.78804   0.37751
C    -0.07167  -4.38707  -0.48402
C    -0.44503  -3.05560  -0.51356
C     0.83064   1.89705   2.98608
C     1.40030   2.88318   3.79042
C     0.71858   4.07882   3.93495
C    -0.49843   4.23965   3.28918
C    -0.98187   3.19197   2.51635
C     4.27761  -1.09351   4.37326
C     5.01123  -2.26567   4.18564
C     6.13688  -2.46801   4.96479
C     6.48603  -1.50205   5.89533
C     5.68536  -0.36976   6.00137
C    -0.77528  -0.08329  -1.78313
C    -1.72977   0.18290   0.86345
C     0.27023   1.92831  -0.18814
H     2.31299  -4.07098   1.88685
H     1.26513  -5.81670   0.41139
H    -0.56084  -5.09282  -1.13580
H    -1.22540  -2.71569  -1.18235
H     2.34599   2.69178   4.27078
H     1.12932   4.87265   4.54127
H    -1.06015   5.15606   3.37823
H    -1.92521   3.26312   1.99242
H     4.69646  -2.97753   3.44026
H     6.73261  -3.36148   4.84658
H     7.35633  -1.61953   6.52193
H     5.91683   0.41229   6.71266
O     1.53354  -0.16505  -0.58609
