24

Pd    0.00000   0.00000   0.00000
Br    0.12326  -0.70664  -2.28537
N     0.54713   1.19589   2.67821
H     1.42691   1.47666   2.24507
N    -1.45474   0.12898   2.37172
H    -1.78716   0.28286   3.31715
N    -2.31565  -0.60039   1.53176
N    -2.41969  -1.58656  -0.59909
H    -1.90853  -1.60393  -1.48871
C     0.30592   1.57281   4.05382
H     1.17194   2.11258   4.42520
H     0.15336   0.69094   4.68288
H    -0.56847   2.22525   4.13559
C    -0.27277   0.52526   1.89052
C    -3.58725  -0.91599   2.14689
H    -4.34384  -1.07450   1.38723
H    -3.90839  -0.06978   2.75887
H    -3.51418  -1.80335   2.78343
C    -1.81996  -0.84017   0.30861
C    -3.62134  -2.39565  -0.57689
H    -3.55441  -3.10837  -1.39645
H    -4.52029  -1.79252  -0.73193
H    -3.70892  -2.95677   0.35330
O     1.48380   0.71949  -0.05630
