29

Au    0.00000   0.00000   0.00000
C     0.37189   1.37242   1.41727
N     1.55060   1.61696   2.01647
C     2.78562   0.91426   1.73211
C     3.29985   0.21479   2.98728
C     3.81794   1.87835   1.15291
C     1.41623   2.63125   2.92410
C     0.12129   3.02310   2.88632
N    -0.50360   2.23917   1.95594
C    -1.90574   2.32813   1.60094
C    -2.77829   2.02011   2.81502
C    -2.21500   3.70119   1.00993
H     2.53071   0.16153   0.97659
H     2.53712  -0.44790   3.38819
H     3.57518   0.93608   3.75296
H     4.17622  -0.37785   2.74194
H     3.41425   2.37822   0.27592
H     4.70647   1.32893   0.85682
H     4.10471   2.63033   1.88413
H     2.22815   2.99421   3.51851
H    -0.38365   3.78507   3.44190
H    -2.06633   1.55994   0.83501
H    -2.52285   1.04554   3.22423
H    -3.82331   2.00618   2.51991
H    -2.64901   2.77121   3.59112
H    -1.55926   3.90408   0.16643
H    -2.08534   4.48584   1.75193
H    -3.24269   3.72500   0.65992
O    -0.30368  -1.12679  -1.16646
