60

Pd    0.00000   0.00000   0.00000
N     2.44283   0.57880   1.55511
H     2.07693  -0.14435   2.15839
N     2.10717   1.88245  -0.30264
N     1.46291   3.19923  -2.14985
H     0.69499   3.37523  -2.78888
N     0.15706   1.41549  -1.44005
N    -0.63869  -2.23693   1.94795
C     1.68936   0.92895   0.51185
C     3.75258   1.11478   1.94680
C     4.16048   0.40202   3.23651
H     3.43718   0.59339   4.02680
H     5.13067   0.76188   3.56832
H     4.23161  -0.67234   3.07745
C     3.63553   2.61936   2.19911
H     3.25979   3.11582   1.31083
H     4.60624   3.03416   2.45647
H     2.94551   2.80846   3.01842
C     4.76836   0.81393   0.84243
H     4.89530  -0.26082   0.73154
H     5.73085   1.25793   1.08128
H     4.41604   1.21565  -0.10175
C     1.24932   2.14831  -1.31061
C     2.49978   4.12027  -2.22875
C     3.69515   3.98832  -1.52994
H     3.82837   3.13994  -0.88272
C     4.68710   4.94023  -1.67096
H     5.60990   4.82687  -1.12125
C     4.50996   6.02794  -2.50906
H     5.28869   6.76779  -2.61531
C     3.32475   6.15766  -3.21443
H     3.17584   6.99946  -3.87453
C     2.32656   5.21329  -3.07900
H     1.40297   5.31768  -3.63242
C    -0.81600   1.64182  -2.42417
C    -0.52602   1.64607  -3.78914
H     0.48610   1.46088  -4.12469
C    -1.54362   1.83264  -4.70775
H    -1.31420   1.82462  -5.76361
C    -2.84779   2.01655  -4.28183
H    -3.63725   2.15586  -5.00516
C    -3.14135   2.00348  -2.92670
H    -4.16027   2.13085  -2.59261
C    -2.13473   1.82065  -2.00087
H    -2.34582   1.79330  -0.93413
C    -0.22864  -1.33792   1.32633
C    -1.46104  -3.32441   2.32558
C    -0.91957  -3.92314   3.62391
H     0.09924  -4.27861   3.48457
H    -1.54108  -4.76067   3.92829
H    -0.92362  -3.17970   4.41831
C    -2.87850  -2.77385   2.50616
H    -2.90702  -2.04454   3.31293
H    -3.56297  -3.58495   2.73874
H    -3.19657  -2.29007   1.58490
C    -1.42538  -4.33780   1.17822
H    -1.73582  -3.84958   0.25651
H    -2.10116  -5.16138   1.39173
H    -0.41987  -4.73081   1.04408
O    -1.29934  -0.81847  -0.60359
