58

Ni    0.00000   0.00000   0.00000
Cl    0.24409  -0.66672  -2.21952
N     1.77328   0.97975   0.18534
N    -0.48798   1.55470  -0.70596
N    -2.01757  -0.23413   0.13131
C     1.77521   2.05016  -0.53793
C     0.46533   2.43820  -1.04251
C     0.14884   3.55461  -1.80933
H     0.91479   4.25643  -2.09693
C    -1.16671   3.74122  -2.20777
H    -1.43216   4.59679  -2.80955
C    -2.13974   2.82417  -1.83850
H    -3.16372   2.95470  -2.14892
C    -1.76866   1.72499  -1.07118
C    -2.62266   0.64499  -0.59670
C     2.98101   2.87860  -0.83689
H     3.83695   2.52686  -0.26594
H     2.78688   3.92071  -0.58650
H     3.21563   2.82341  -1.89945
C    -4.07844   0.62623  -0.92847
H    -4.58528  -0.16314  -0.37864
H    -4.21464   0.45952  -1.99652
H    -4.52858   1.58525  -0.67524
C     2.93508   0.44243   0.75916
C     3.92273  -0.18365  -0.01174
C     5.02403  -0.71591   0.64474
H     5.78977  -1.20654   0.06184
C     5.14894  -0.63868   2.01883
H     6.01535  -1.05942   2.50679
C     4.15123  -0.04348   2.77069
H     4.23427  -0.00268   3.84670
C     3.03181   0.49062   2.15758
C     3.78561  -0.32995  -1.49503
H     2.74412  -0.46961  -1.77891
H     4.35118  -1.19279  -1.83713
H     4.16726   0.54947  -2.01533
C     1.92596   1.11846   2.94555
H     2.05155   0.92870   4.00770
H     0.97294   0.69359   2.61721
H     1.88796   2.19664   2.78218
C    -2.66406  -1.35497   0.67261
C    -2.79853  -1.39811   2.06815
C    -3.41198  -2.49395   2.64873
H    -3.52455  -2.52930   3.72225
C    -3.86392  -3.54337   1.86802
H    -4.33446  -4.39785   2.33088
C    -3.69029  -3.50804   0.49754
H    -4.01717  -4.34088  -0.10776
C    -3.08965  -2.42348  -0.12704
C    -2.27942  -0.25987   2.88833
H    -1.25232  -0.04257   2.58106
H    -2.28779  -0.50936   3.94547
H    -2.87495   0.64131   2.73408
C    -2.86354  -2.43662  -1.60661
H    -1.92962  -1.94013  -1.86370
H    -3.67522  -1.93429  -2.13456
H    -2.81500  -3.46140  -1.96579
O     0.43824  -1.39783   0.75929
