65

C    -1.28443   2.80536  -0.19422
H    -1.32571   2.97883  -1.28012
C    -1.84077   3.96462   0.54511
C    -2.24061   5.12395  -0.11746
H    -2.16049   5.20195  -1.19178
C    -2.74252   6.17329   0.63465
H    -3.05895   7.08609   0.15129
C    -2.83194   6.03570   2.00837
H    -3.21616   6.83400   2.62395
C    -2.41681   4.83953   2.58897
C    -2.49968   4.62001   4.06605
H    -3.54060   4.62146   4.38651
H    -1.98422   5.41725   4.59844
H    -2.05177   3.66502   4.32521
C     0.90173   2.95045   1.84197
H     0.06268   2.61779   2.46836
C     2.18738   2.29024   2.34063
H     3.04618   2.63439   1.76536
H     2.13545   1.20411   2.25982
H     2.35642   2.54524   3.38545
C     1.02404   4.47338   1.93827
H     0.78876   4.79087   2.95231
H     0.34746   4.98986   1.26020
H     2.04010   4.79756   1.72099
C     1.62693   3.27304  -0.94522
H     2.02180   4.06529  -0.29905
C     2.78969   2.37787  -1.37648
H     2.46835   1.66901  -2.13620
H     3.19178   1.82098  -0.52898
H     3.59038   2.98311  -1.79797
C     0.96126   3.92711  -2.15091
H     1.72125   4.45613  -2.72372
H     0.21106   4.65374  -1.84220
H     0.51032   3.18540  -2.80691
C    -2.99046   1.07371   1.65201
H    -2.26504   1.51296   2.35194
C    -3.24341  -0.38067   2.05550
H    -3.53690  -0.42699   3.10289
H    -2.35217  -0.99548   1.92666
H    -4.04238  -0.81959   1.46209
C    -4.29138   1.86479   1.73612
H    -5.09273   1.34792   1.21411
H    -4.19252   2.86659   1.32888
H    -4.58173   1.95388   2.78223
C    -3.27533   1.04802  -1.38009
H    -2.61318   1.10631  -2.25647
C    -3.96612  -0.31241  -1.42059
H    -4.72766  -0.39581  -0.64771
H    -3.23985  -1.11480  -1.28480
H    -4.44705  -0.45428  -2.38653
C    -4.27113   2.20212  -1.47733
H    -4.61170   2.28597  -2.50822
H    -3.82261   3.15235  -1.19340
H    -5.14458   2.03413  -0.85466
C     1.67092  -0.61310  -0.08869
C     0.04602  -0.25270   1.74245
C    -0.62188  -1.65431  -0.23121
Mn    0.00000   0.00000   0.00000
N    -1.93670   3.84056   1.86540
O     2.73426  -1.05102  -0.08859
O     0.12590  -0.48114   2.87073
O    -0.99482  -2.73741  -0.33532
P     0.49114   2.27089   0.15716
P    -2.06370   1.10512   0.03681
O    -0.02845   0.28434  -1.62507
