39

Ti    0.00000   0.00000   0.00000
Cl    0.45933  -0.45439  -2.10575
N     0.98062   1.72152  -0.03337
N     1.92275  -0.71282   0.47857
N    -0.80540  -1.77352   0.37015
N    -0.26446   0.17712   2.07419
C     0.78697   3.00476  -0.35221
C     1.99993   3.69695  -0.37881
C     2.99213   2.77774  -0.06982
C     2.34088   1.55113   0.13577
C     2.79119   0.24154   0.37986
C     2.38852  -2.06954   0.64482
C     2.15457  -2.56425   2.07307
C    -1.23040  -2.85553  -0.28626
C    -2.00512  -3.66728   0.54774
C    -2.05851  -3.03806   1.78254
C    -1.31076  -1.85586   1.65334
C    -0.99890  -0.79366   2.51908
C    -0.00014   1.29996   2.94566
C    -1.06885   2.37841   2.75630
H    -0.20069   3.38630  -0.55980
H     2.13099   4.73747  -0.60412
H     4.04900   2.95357  -0.00682
H     3.86573   0.04038   0.44206
H     1.83625  -2.70399  -0.05888
H     3.46221  -2.13206   0.41068
H     1.09072  -2.57397   2.30132
H     2.54535  -3.57255   2.18213
H     2.66152  -1.91227   2.78281
H    -0.97236  -3.01565  -1.32172
H    -2.46929  -4.59542   0.27622
H    -2.57224  -3.37121   2.66399
H    -1.36301  -0.80431   3.55124
H     0.00815   0.97135   3.99621
H     0.98572   1.70725   2.69368
H    -0.82731   3.25574   3.35055
H    -1.12604   2.65903   1.70581
H    -2.04184   1.99802   3.06164
O    -1.47818   0.67653  -0.28248
