59

Pd    0.00000   0.00000   0.00000
Cl   -1.37826   0.14590   1.78908
N    -1.52243  -0.25020  -1.29026
C    -1.44447   0.13497  -2.51313
C    -0.26548   0.97763  -2.90105
H    -0.43885   2.01942  -2.60081
H    -0.07552   0.94310  -3.97575
P     1.17367   0.38963  -1.85932
C    -2.58259  -1.01896  -0.77618
C    -2.32242  -2.33488  -0.36397
C    -0.93358  -2.90473  -0.45120
H    -0.94816  -3.97060  -0.23479
H    -0.28621  -2.41377   0.30839
H    -0.49404  -2.75534  -1.44442
C    -3.36674  -3.08447   0.15190
H    -3.17949  -4.09993   0.46865
C    -4.63286  -2.54204   0.28338
H    -5.43443  -3.13780   0.69271
C    -4.86234  -1.22833  -0.07883
H    -5.84050  -0.79296   0.06179
C    -3.84746  -0.44646  -0.60915
C    -4.07074   0.99994  -0.93036
H    -5.00686   1.34053  -0.49640
H    -4.10949   1.16754  -2.00793
H    -3.25684   1.59669  -0.51507
C    -2.41570  -0.21008  -3.56100
C    -2.80219   0.76552  -4.48317
H    -2.39335   1.76294  -4.41182
C    -3.73341   0.47616  -5.46169
H    -4.03337   1.24447  -6.15862
C    -4.28096  -0.79355  -5.54813
H    -5.00847  -1.01806  -6.31317
C    -3.88776  -1.77360  -4.65195
H    -4.30246  -2.76776  -4.72063
C    -2.96566  -1.48779  -3.66299
H    -2.65808  -2.26367  -2.98043
C     2.10381  -0.77501  -2.89103
C     2.58001  -1.90797  -2.23543
H     2.37202  -2.02342  -1.17627
C     3.31261  -2.85311  -2.93003
H     3.68470  -3.72983  -2.42165
C     3.56744  -2.67061  -4.28006
H     4.13886  -3.40661  -4.82577
C     3.09390  -1.54385  -4.93476
H     3.29889  -1.40471  -5.98638
C     2.36255  -0.59313  -4.24573
H     2.00138   0.28794  -4.75847
C     2.16818   1.89799  -1.71913
C     1.68538   2.81905  -0.78733
H     0.78246   2.58031  -0.21078
C     2.37027   3.99711  -0.56598
H     2.00518   4.70824   0.15972
C     3.54141   4.25505  -1.26421
H     4.08279   5.17182  -1.08425
C     4.02856   3.33458  -2.17652
H     4.94858   3.53370  -2.70625
C     3.34738   2.15084  -2.40642
H     3.73657   1.42287  -3.10435
O     1.32332   0.01321   0.98546
