55

Ni    0.00000   0.00000   0.00000
Br   -0.37304  -0.69840  -2.10787
P     0.13080   0.47176   2.07861
P    -1.95507  -0.74303   0.43950
C    -1.55395   0.42478   2.87009
H    -1.46868   0.36591   3.95857
H    -2.08322   1.34775   2.60969
C    -2.27935  -0.77255   2.27612
H    -3.35508  -0.74741   2.47095
H    -1.87240  -1.69946   2.69164
C     1.00426   1.80678   2.93217
C     0.34497   2.97329   3.30583
H    -0.71390   3.08762   3.11878
C     1.04830   3.99692   3.91410
H     0.53249   4.89959   4.20728
C     2.40950   3.86942   4.13633
H     2.95497   4.67406   4.60612
C     3.07247   2.71779   3.74336
H     4.13615   2.62385   3.90082
C     2.37690   1.68956   3.13729
H     2.89500   0.79939   2.80940
C     0.86003  -1.04697   2.76207
C     1.06725  -1.20296   4.12922
H     0.84643  -0.38598   4.80354
C     1.56621  -2.39706   4.61401
H     1.72956  -2.51844   5.67484
C     1.85883  -3.43670   3.74356
H     2.24979  -4.36615   4.12950
C     1.66015  -3.28382   2.38153
H     1.89539  -4.08823   1.70102
C     1.16304  -2.08974   1.89225
H     1.02681  -1.96381   0.81263
C    -3.06317   0.60418  -0.06291
C    -4.44567   0.50071   0.05925
H    -4.88706  -0.42274   0.41100
C    -5.24466   1.57404  -0.28613
H    -6.31835   1.49233  -0.19935
C    -4.67264   2.75106  -0.74596
H    -5.30360   3.58416  -1.01734
C    -3.29698   2.85959  -0.86448
H    -2.85083   3.77345  -1.22680
C    -2.49396   1.78683  -0.52388
H    -1.40760   1.86608  -0.63491
C    -2.71882  -2.26640  -0.16847
C    -2.49137  -3.46928   0.49367
H    -1.89518  -3.49249   1.39652
C    -3.01482  -4.64495  -0.01138
H    -2.83850  -5.57576   0.50749
C    -3.74991  -4.62984  -1.18538
H    -4.15193  -5.55076  -1.58034
C    -3.95180  -3.43803  -1.86248
H    -4.50580  -3.42777  -2.78898
C    -3.43237  -2.25853  -1.36416
H    -3.56395  -1.33280  -1.90617
O     1.51135   0.63630  -0.18283
