60

Pd    0.00000   0.00000   0.00000
Br   -1.64508  -1.68533   0.65613
N     1.25011  -0.71439   1.41342
N    -2.36518   1.49388  -0.77579
C     1.64724  -1.98143   1.48466
H     1.34421  -2.63008   0.67019
C     2.39306  -2.46819   2.54373
H     2.69786  -3.50250   2.55358
C     2.72550  -1.61174   3.58073
H     3.30270  -1.96096   4.42341
C     2.29388  -0.29663   3.51237
H     2.52097   0.40750   4.29700
C     1.56282   0.11091   2.41109
H     1.22566   1.14104   2.32277
C    -1.29807   0.80214  -1.22315
C    -3.08135   1.98504  -1.83833
H    -3.95815   2.58577  -1.71028
C    -2.43542   1.58739  -2.95954
H    -2.65984   1.76357  -3.99148
N    -1.34556   0.85834  -2.56123
C    -0.36633   0.22301  -3.41885
H     0.54028   0.83992  -3.44503
H    -0.78414   0.15935  -4.42747
C    -0.04748  -1.15476  -2.88168
C     1.20731  -1.44156  -2.34037
H     1.99586  -0.69725  -2.36729
C     1.47766  -2.71734  -1.86089
H     2.46587  -2.94547  -1.48419
C     0.49429  -3.69384  -1.87994
H     0.70111  -4.67921  -1.48859
C    -0.75702  -3.40508  -2.39701
H    -1.52865  -4.15909  -2.39971
C    -1.02385  -2.14562  -2.90378
H    -2.00140  -1.92536  -3.30999
C    -2.65210   1.61391   0.60583
C    -1.63885   2.09560   1.43582
H    -0.72332   2.48508   0.99192
C    -1.83610   2.17640   2.80091
H    -1.05304   2.56176   3.43847
C    -3.04832   1.78204   3.37062
C    -4.07871   1.28802   2.53316
C    -3.87942   1.18503   1.13186
C    -4.91382   0.61223   0.33422
H    -4.73969   0.46718  -0.72138
C    -6.08532   0.21823   0.88336
H    -6.85620  -0.22351   0.26842
C    -6.33569   0.35522   2.27896
C    -5.30977   0.88052   3.10178
C    -5.51969   0.99120   4.49888
C    -4.46634   1.50100   5.31284
H    -4.63670   1.57781   6.37738
C    -3.28264   1.87244   4.77357
H    -2.48580   2.25136   5.39786
C    -6.74567   0.59449   5.03553
H    -6.90634   0.68059   6.10067
C    -7.74463   0.09307   4.22161
H    -8.68710  -0.20934   4.65460
C    -7.54486  -0.03050   2.85888
H    -8.32657  -0.43121   2.22973
O     1.08748   1.16014  -0.44042
