31

Os    0.00000   0.00000   0.00000
Cl    0.11764  -1.28512   1.85777
N    -1.76739   0.44536   0.24673
C    -2.90131   0.60440   0.44470
C    -4.30135   0.80841   0.68821
C     0.96948   2.23874  -1.09875
C     1.21116   2.41668   0.26903
C     2.03750   1.53127   0.95414
C     2.63894   0.46828   0.26402
C     2.42067   0.30425  -1.09906
C     1.57699   1.18962  -1.80241
C     1.35542   1.02651  -3.24784
C     2.42621   0.80238  -4.10823
C     2.20728   0.64463  -5.46398
C     0.91955   0.69416  -5.97085
C    -0.15119   0.90526  -5.11798
C     0.06293   1.07684  -3.76374
H    -4.49598   0.76336   1.75988
H    -4.61736   1.77969   0.30632
H    -4.87310   0.02469   0.19158
H     0.36443   2.95672  -1.63667
H     0.78161   3.26577   0.78204
H     2.24415   1.67744   2.00420
H     3.30595  -0.20126   0.78993
H     2.91398  -0.49309  -1.63935
H     3.43260   0.77072  -3.71529
H     3.04415   0.47713  -6.12588
H     0.75060   0.56091  -7.02882
H    -1.15752   0.92878  -5.50781
H    -0.77511   1.20563  -3.09200
O    -0.31786  -1.16871  -1.12053
