62

Fe    0.00000   0.00000   0.00000
Si   -2.70292  -0.94803   0.87340
N    -1.13386  -1.35319   0.22676
N    -4.03221  -1.89713   0.30365
N    -0.25661   0.77556  -2.50152
N     1.87353  -1.06259  -1.45878
C    -0.61838  -2.63006   0.33929
C     0.45250  -2.85260   1.21406
H     0.81144  -2.01343   1.79968
C     1.02394  -4.10402   1.32601
H     1.85038  -4.26064   2.00524
C     0.53472  -5.16471   0.57802
H     0.97760  -6.14519   0.67047
C    -0.52993  -4.95842  -0.28475
H    -0.91563  -5.78288  -0.86786
C    -1.10337  -3.70752  -0.40561
H    -1.92979  -3.54159  -1.07971
C    -2.60185  -1.10227   2.77290
H    -2.42876  -2.12743   3.08214
H    -3.50078  -0.74837   3.26549
H    -1.77025  -0.50642   3.13669
C    -2.89697   0.89376   0.41124
H    -3.43500   1.03344  -0.51812
H    -1.91564   1.35851   0.30542
H    -3.43353   1.43586   1.18093
C    -4.75542  -2.83746   1.12945
H    -4.77461  -2.45916   2.15112
H    -5.78953  -2.90076   0.77676
C    -4.13641  -4.23609   1.13093
H    -4.70073  -4.89453   1.78684
H    -3.10703  -4.18563   1.47644
H    -4.13827  -4.66225   0.13077
C    -4.39934  -1.89671  -1.09417
H    -4.56280  -2.92530  -1.43735
H    -3.56774  -1.47971  -1.66484
C    -5.65692  -1.07076  -1.37202
H    -5.86865  -1.05625  -2.43855
H    -5.51492  -0.05162  -1.02396
H    -6.51683  -1.48937  -0.85559
C    -1.54060   0.34932  -3.04133
H    -1.67888   0.67249  -4.08447
H    -2.33983   0.77294  -2.43873
H    -1.61138  -0.73587  -2.99158
C    -0.20297   2.23270  -2.45836
H    -0.32036   2.67385  -3.46004
H     0.74727   2.55268  -2.03832
H    -0.99887   2.60371  -1.81579
C     0.84237   0.24424  -3.31194
H     1.10898   0.94670  -4.11695
H     0.51332  -0.68239  -3.78380
C     2.09138  -0.03762  -2.47778
H     2.38930   0.87728  -1.96256
H     2.90751  -0.33279  -3.16228
C     3.03839  -1.13012  -0.58373
H     3.95267  -1.38617  -1.13938
H     2.86482  -1.88850   0.17547
H     3.17840  -0.17019  -0.09228
C     1.65883  -2.36890  -2.06351
H     2.45476  -2.62162  -2.78118
H     0.69893  -2.39810  -2.57159
H     1.64083  -3.12531  -1.28418
O     0.99059   1.24791   0.42889
