27

Pt    0.00000   0.00000   0.00000
Cl   -0.77195   0.67638  -1.99648
N     0.84524  -0.67856   1.83831
N     1.31038  -1.42322  -0.89989
C    -0.15742  -1.50498   2.50939
H     0.23684  -1.91516   3.44771
H    -0.47097  -2.32741   1.86782
H    -1.02888  -0.88802   2.72551
C     1.22795   0.41690   2.72921
H     0.34084   1.00001   2.97124
H     1.93762   1.07468   2.22812
H     1.67926   0.03219   3.65135
C     2.03195  -1.46453   1.47125
H     2.86204  -0.77240   1.30948
H     2.31572  -2.14156   2.29002
C     1.79399  -2.27473   0.19620
H     2.72295  -2.78724  -0.09324
H     1.03862  -3.04017   0.39079
C     2.40466  -0.68080  -1.52431
H     2.90604  -0.04645  -0.79452
H     1.99142  -0.04327  -2.30505
H     3.13980  -1.36459  -1.96723
C     0.65517  -2.24413  -1.91820
H     1.35593  -2.97113  -2.34530
H     0.27742  -1.59335  -2.70529
H    -0.19178  -2.77346  -1.48253
O    -1.01295   1.04175   0.78178
