22

Pt    0.00000   0.00000   0.00000
C     0.91355   0.03925   2.19941
H     0.12016   0.32644   2.88656
C     1.56916   0.99276   1.48956
H     1.29787   2.03950   1.61138
C     2.84453   0.73957   0.79463
H     3.69317   1.31028   1.14753
C     2.94716  -0.08338  -0.24399
H     3.88496  -0.20718  -0.76949
C     1.79950  -0.83040  -0.79184
H     1.79081  -0.90877  -1.87918
C     1.12140  -1.81495  -0.05872
H     0.62013  -2.60834  -0.61356
C     1.50304  -2.18243   1.31781
H     1.82182  -3.20653   1.46120
C     1.41455  -1.33993   2.34188
H     1.65816  -1.64974   3.34948
C    -1.05666  -0.50644  -1.67622
H    -0.56922  -1.29463  -2.25355
H    -1.16543   0.37886  -2.30961
H    -2.05494  -0.84701  -1.38800
O    -1.17472   1.09348   0.38319
