39

Pd    0.00000   0.00000   0.00000
S     1.45506   0.28162   1.75622
S    -1.15897  -0.36439  -1.93189
C     2.84118  -0.78018  -0.38474
C     2.89424  -0.64762   1.10806
H     3.80347  -0.16077   1.46381
H     2.82353  -1.63265   1.57892
C     2.02733   2.00538   1.39591
H     2.54058   1.95674   0.42828
C     1.60370  -0.64920  -1.02138
C    -2.18255   1.48360  -3.70209
H    -2.41685   2.52186  -3.92696
H    -3.11458   0.93017  -3.62041
H    -1.60886   1.07747  -4.53373
C     0.17813  -0.91168  -3.06337
H    -0.09644  -1.93066  -3.35094
H     0.14541  -0.28879  -3.95736
C     1.52155  -0.90832  -2.39222
C     2.98238   2.44333   2.49372
H     3.33959   3.45133   2.29266
H     3.84673   1.78622   2.56243
H     2.47088   2.44180   3.45363
C     0.81719   2.92300   1.31901
H     0.29723   2.94289   2.27507
H     0.10573   2.57765   0.55818
H     1.13193   3.93479   1.07028
C    -1.40242   1.40324  -2.40125
H    -2.02139   1.77851  -1.57778
C    -0.08850   2.16955  -2.45665
H     0.49421   1.89753  -3.33510
H     0.51815   1.96301  -1.56142
H    -0.29248   3.23801  -2.50222
C     3.98085  -1.09172  -1.11452
H     4.93364  -1.18121  -0.61146
C     3.89287  -1.29763  -2.48015
H     4.78063  -1.53264  -3.04788
C     2.66555  -1.22767  -3.11435
H     2.59134  -1.42478  -4.17491
O    -1.36622   0.46514   0.79975
