69

Cd    0.00000   0.00000   0.00000
Cl   -0.57487   0.10766  -2.34970
Cl   -1.49999   2.15981   0.46549
N     2.19024   3.55966   3.51090
N     0.92365   3.11312   1.57018
H    -0.37566   2.78263   1.02272
N     4.17470   2.53946   4.06317
N     3.79073   1.15193   1.19258
H     4.65225   0.70084   1.44980
N     1.93245   1.53532   0.04059
C     1.14487   3.70284   2.73192
H     0.37961   4.38178   3.08209
C     1.90006   2.28096   1.18092
C     3.06869   2.05671   1.93642
C     3.17733   2.70891   3.18163
C     5.28121   1.65421   3.80043
H     4.92963   0.62845   3.66124
H     5.95139   1.67225   4.65671
H     5.85108   1.97755   2.92404
C     3.06151   0.87778   0.09145
H     3.39416   0.19789  -0.67205
C     4.19729   3.29136   5.30429
H     4.35567   2.59753   6.13526
H     3.21664   3.76013   5.40542
C     5.28020   4.33924   5.27104
C     5.19484   5.37825   4.35120
H     4.33661   5.43247   3.69729
C     6.19125   6.33387   4.28041
H     6.11513   7.13909   3.56476
C     7.28392   6.26207   5.12965
H     8.06127   7.00952   5.07593
C     7.37469   5.23191   6.04899
H     8.22319   5.17306   6.71461
C     6.37856   4.27211   6.11621
H     6.45276   3.47152   6.83931
Cl    0.57558  -0.10542   2.34804
N    -2.18728  -3.55941  -3.51186
N    -0.92187  -3.11331  -1.57024
H     0.37682  -2.78336  -1.01918
N    -4.17175  -2.53952  -4.06473
N    -3.78878  -1.15161  -1.19425
H    -4.64906  -0.69888  -1.45279
N    -1.93164  -1.53609  -0.04079
C    -1.14219  -3.70247  -2.73243
H    -0.37697  -4.38174  -3.08206
C    -1.89857  -2.28132  -1.18137
C    -3.06654  -2.05656  -1.93768
C    -3.17461  -2.70885  -3.18288
C    -5.27776  -1.65343  -3.80283
H    -4.92567  -0.62766  -3.66495
H    -5.94817  -1.67221  -4.65889
H    -5.84755  -1.97543  -2.92592
C    -3.06008  -0.87761  -0.09272
H    -3.39297  -0.19769   0.67064
C    -4.19381  -3.29148  -5.30581
H    -4.35217  -2.59775  -6.13686
H    -3.21300  -3.76000  -5.40667
C    -5.27635  -4.33977  -5.27289
C    -5.19062  -5.37905  -4.35341
H    -4.33251  -5.43303  -3.69932
C    -6.18649  -6.33527  -4.28321
H    -6.11005  -7.14073  -3.56786
C    -7.27900  -6.26378  -5.13266
H    -8.05588  -7.01176  -5.07947
C    -7.37026  -5.23322  -6.05148
H    -8.21866  -5.17461  -6.71724
C    -6.37466  -4.27285  -6.11813
H    -6.44917  -3.47200  -6.84090
O     0.92846  -1.33266  -0.29065
