69

Cr    0.00000   0.00000   0.00000
Cl    1.09226  -0.71384   1.73218
N     0.50941  -1.29980  -1.27763
N     1.44192   0.91672  -0.80754
O    -1.73342  -1.26317   1.01818
O    -0.59124   1.73022   1.54432
C    -0.08391  -3.61337  -0.78074
C    -0.84849  -4.73294  -1.08177
H    -0.77659  -5.60352  -0.44477
C    -1.67963  -4.75302  -2.18511
H    -2.27298  -5.62843  -2.40416
C    -1.72757  -3.65342  -3.02263
H    -2.35488  -3.67493  -3.90205
C    -0.97778  -2.51690  -2.75713
C    -0.18029  -2.48175  -1.60031
C     0.84054  -3.64000   0.39508
H     0.37240  -3.17012   1.25986
H     1.75610  -3.09052   0.18292
H     1.09327  -4.66506   0.65793
C    -1.02993  -1.34926  -3.69523
H    -1.22893  -0.42728  -3.15160
H    -1.81128  -1.49531  -4.43704
H    -0.07981  -1.23018  -4.21507
C     1.57160  -0.98088  -2.04270
H     1.94777  -1.66952  -2.78637
C     2.09713   0.24591  -1.77354
H     2.94775   0.68336  -2.27755
C     3.06920   2.27006   0.39109
C     3.48026   3.51933   0.83218
H     4.33639   3.58975   1.48755
C     2.81800   4.66851   0.44047
H     3.14480   5.63320   0.79999
C     1.75944   4.57707  -0.44275
H     1.26864   5.47452  -0.79218
C     1.31930   3.34443  -0.90729
C     1.94095   2.17929  -0.43920
C     3.84036   1.04660   0.78206
H     4.32403   0.60783  -0.09035
H     3.18490   0.28958   1.20803
H     4.60753   1.29816   1.51025
C     0.22049   3.28138  -1.92121
H     0.39394   2.47248  -2.62922
H     0.15161   4.22160  -2.46414
H    -0.74093   3.08920  -1.44510
C    -2.86836  -1.79646   0.35991
H    -2.58579  -2.05143  -0.66000
H    -3.66510  -1.03879   0.33396
C    -3.29088  -3.00629   1.20386
H    -4.37181  -3.12723   1.20607
H    -2.84033  -3.91369   0.80560
C    -2.73136  -2.68006   2.60020
H    -2.00779  -3.43096   2.91293
H    -3.51069  -2.61724   3.35690
C    -2.04234  -1.32192   2.39848
H    -2.72700  -0.50110   2.66018
H    -1.11223  -1.21187   2.95685
C     0.28392   2.38534   2.44595
H     0.62935   3.33143   2.00634
H     1.13710   1.73178   2.62308
C    -0.56478   2.64076   3.69546
H    -0.22371   3.51864   4.23853
H    -0.51624   1.77858   4.35948
C    -1.98225   2.80877   3.12395
H    -2.34080   3.83192   3.21737
H    -2.68960   2.15276   3.62882
C    -1.82311   2.42246   1.64291
H    -2.61177   1.76913   1.26980
H    -1.78307   3.32202   1.01224
O    -1.28449   0.60933  -0.83743
