43

Au    0.00000   0.00000   0.00000
N    -1.61190   1.64253   1.92857
N    -2.78798   1.03773   0.20796
N     0.74862  -0.38800   7.12255
N    -5.09009  -4.10470  -4.31945
C    -1.54913   1.01694   0.73720
C    -2.90017   2.06268   2.17869
C    -3.48374   2.73881   3.24069
H    -2.91074   3.05198   4.09874
C    -4.83753   2.99868   3.15812
H    -5.32443   3.52128   3.96658
C    -5.59322   2.60148   2.05554
H    -6.64857   2.82419   2.03494
C    -5.02239   1.93110   0.99172
H    -5.61328   1.62680   0.14254
C    -3.66248   1.66684   1.06533
C    -0.48699   1.82392   2.81306
H    -0.71959   2.64574   3.49322
H     0.38208   2.09926   2.20988
C    -0.15846   0.55601   3.60566
H     0.68568   0.77700   4.26150
H     0.15350  -0.22306   2.90502
C    -1.33574   0.05645   4.44030
H    -1.69901   0.85807   5.08840
H    -2.15664  -0.24725   3.78613
C    -0.92795  -1.14215   5.30653
H    -0.46637  -1.91739   4.68873
H    -1.80307  -1.56892   5.80459
C     0.01332  -0.73852   6.32123
C    -3.14379   0.44602  -1.05566
H    -2.28354   0.53271  -1.72453
H    -3.98033   1.00685  -1.47955
C    -3.51544  -1.03032  -0.89632
H    -4.33513  -1.12393  -0.17853
H    -2.64862  -1.56253  -0.49592
C    -3.92130  -1.64130  -2.23398
H    -4.81579  -1.14081  -2.61330
H    -3.12035  -1.49187  -2.96072
C    -4.19899  -3.14252  -2.09337
H    -4.95247  -3.32074  -1.31993
H    -3.28386  -3.67214  -1.81482
C    -4.68899  -3.69038  -3.33316
O     1.23694  -0.92814  -0.57537
