46

Pd    0.00000   0.00000   0.00000
Cl   -0.45249  -0.89561  -2.00445
N     0.55218   0.50414   2.01331
N    -2.12054   0.05659   0.83863
C     2.01797   0.46947   2.12824
C     2.56178  -0.91066   1.76498
C     1.95315  -1.98069   2.66268
C     0.43562  -1.86223   2.57710
C     0.00843  -0.45004   2.99401
C    -1.50927  -0.33585   3.21029
C    -2.37568  -0.75634   2.02210
C    -2.98139  -0.34011  -0.28692
C    -4.44976   0.05124  -0.13556
C    -4.53387   1.56407   0.01682
C    -3.70187   1.98067   1.22374
C    -2.24099   1.50798   1.09733
C    -1.45523   1.94835   2.35083
C     0.06819   1.86959   2.20941
C    -1.84801   1.10771   3.56323
H     2.31140   0.73043   3.15787
H     2.43429   1.20893   1.44043
H     3.64840  -0.89869   1.85020
H     2.30284  -1.12526   0.71580
H     2.27854  -1.83754   3.69690
H     2.27475  -2.97225   2.34279
H    -0.05223  -2.60102   3.21540
H     0.13051  -2.03922   1.52912
H     0.46848  -0.22800   3.97486
H    -1.76055  -0.99627   4.04826
H    -3.42588  -0.68393   2.34096
H    -2.18430  -1.80054   1.75932
H    -2.87751  -1.41944  -0.42419
H    -2.59223   0.14497  -1.18917
H    -4.90884  -0.44008   0.72496
H    -4.98626  -0.27519  -1.02662
H    -5.56838   1.88675   0.14806
H    -4.14312   2.04151  -0.88430
H    -4.15903   1.56706   2.12385
H    -3.70411   3.06781   1.32241
H    -1.80549   2.01531   0.21353
H    -1.70269   3.00020   2.53089
H     0.51120   2.29983   3.12398
H     0.40801   2.46775   1.35419
H    -1.28532   1.43315   4.44081
H    -2.90745   1.20929   3.79814
O     1.32355   0.68121  -0.71180
