55

Ir    0.00000   0.00000   0.00000
N     0.17296  -0.72150  -2.97132
N    -1.52695   0.53307  -2.57336
N    -3.17540  -0.31396  -0.37382
H    -2.39614  -0.91743  -0.60340
H    -3.59273  -0.48671   0.52427
C    -0.43942  -0.02695  -1.98602
C    -0.50725  -0.58347  -4.14953
H    -0.18638  -1.05514  -5.05538
C    -1.57561   0.20764  -3.90408
H    -2.36224   0.54819  -4.54477
C     1.34286  -1.55230  -2.81211
H     1.50014  -2.08719  -3.75165
H     1.13792  -2.27743  -2.01927
C     2.58628  -0.74423  -2.44456
H     3.42216  -1.43619  -2.33133
H     2.40769  -0.26692  -1.47938
C     2.92984   0.31254  -3.49083
H     3.10828  -0.17238  -4.45411
H     2.08304   0.99219  -3.61200
C     4.16242   1.11471  -3.09305
H     3.99282   1.62973  -2.15026
H     4.39807   1.85743  -3.85159
H     5.02269   0.45961  -2.97549
C    -2.47266   1.38843  -1.95367
C    -3.22395   0.96232  -0.84307
C    -4.11230   1.88775  -0.27861
H    -4.69151   1.58270   0.58117
C    -4.26551   3.15401  -0.79833
H    -4.95883   3.84070  -0.33587
C    -3.53810   3.54942  -1.91082
H    -3.65909   4.53791  -2.32473
C    -2.64511   2.66109  -2.47881
H    -2.05299   2.95408  -3.33429
C    -0.36027   0.01323   2.11780
H    -0.97973  -0.85296   2.34129
C     0.99018  -0.19829   1.92277
H     1.35302  -1.22176   1.97610
C     2.03972   0.86328   2.16391
H     2.95603   0.38517   2.51574
H     1.69652   1.52573   2.96013
C     2.35795   1.67648   0.89482
H     2.66061   2.69380   1.16730
H     3.20785   1.21714   0.38448
C     1.20184   1.73996  -0.08062
H     1.52011   2.00928  -1.08750
C    -0.11018   2.10782   0.27879
H    -0.70325   2.59502  -0.49009
C    -0.49603   2.51817   1.68568
H    -1.29941   3.25514   1.62981
H     0.35579   3.00452   2.16389
C    -0.97819   1.32662   2.53345
H    -0.76860   1.50848   3.59333
H    -2.06191   1.23965   2.43092
O    -0.39654  -1.60084  -0.05077
