38

Re    0.00000   0.00000   0.00000
N    -0.99990   0.08388  -1.96395
N     1.33448   1.05783  -1.20772
N     2.43572   1.65949  -0.95608
N     2.68194   2.50072  -1.94282
O     1.23743  -2.78113  -0.53682
O    -2.50072  -1.00934   1.50432
O     1.55371   0.62560   2.59397
C    -2.17191  -0.45345  -2.28048
H    -2.58676  -1.15428  -1.56799
C    -2.84826  -0.14890  -3.44921
H    -3.80217  -0.60767  -3.65302
C    -2.28312   0.75542  -4.33687
H    -2.78839   1.02139  -5.25275
C    -1.05823   1.31292  -4.02250
H    -0.57864   2.02239  -4.67820
C    -0.44591   0.95626  -2.82511
C     0.82397   1.49712  -2.38964
C     1.70504   2.44607  -2.86956
H     1.69931   3.06221  -3.74331
C     3.78922   3.41555  -1.86927
H     4.31454   3.43266  -2.82796
H     4.45790   3.02973  -1.09436
C     3.29392   4.79638  -1.50240
C     2.45569   4.95343  -0.40457
H     2.17233   4.09442   0.18714
C     1.97794   6.20745  -0.07092
H     1.32139   6.31918   0.77854
C     2.34039   7.31202  -0.82476
H     1.96788   8.29109  -0.56338
C     3.17948   7.15961  -1.91538
H     3.46546   8.01803  -2.50540
C     3.65062   5.90354  -2.25813
H     4.30287   5.78635  -3.11275
C     0.77980  -1.75044  -0.31378
C    -1.53762  -0.69429   0.97221
C     0.98298   0.31826   1.65313
O    -0.65435   1.51209   0.08900
