29

Pt    0.00000   0.00000   0.00000
Cl   -1.19569   1.99346  -0.50327
Cl    1.54587   1.22396   1.31623
N     1.25026   0.36354  -1.55734
H     2.21304   0.52145  -1.26378
C     1.03023   0.53084  -2.81477
O    -0.12032   0.35463  -3.37703
C     2.14950   0.89726  -3.75167
H     2.81023   1.62361  -3.27716
H     1.71400   1.33748  -4.64826
C     2.93294  -0.36595  -4.12048
H     3.35312  -0.83499  -3.23406
H     3.74421  -0.11019  -4.79612
H     2.28226  -1.08237  -4.61466
H    -0.81086  -0.01292  -2.75334
Cl   -1.54555  -1.22452  -1.31637
N    -1.24974  -0.36351   1.55811
H    -2.21310  -0.51943   1.26538
C    -1.02823  -0.53340   2.81491
O     0.12351  -0.36000   3.37566
H     0.81357   0.00774   2.75168
C    -2.14619  -0.89980   3.75337
H    -2.81021  -1.62295   3.27859
H    -1.70939  -1.34376   4.64749
C    -2.92516   0.36441   4.12816
H    -3.34857   0.83594   3.24462
H    -3.73370   0.10913   4.80722
H    -2.27055   1.07850   4.62052
O     0.82865  -1.38356   0.34870
