23

Pd    0.00000   0.00000   0.00000
Cl    0.15341  -2.02783  -0.85996
N     0.67210  -0.53121   1.85732
C     0.70532  -1.77891   2.31662
H     0.73462  -2.55701   1.56137
C     0.69325  -2.06258   3.67168
H     0.74964  -3.08272   4.01422
C     0.54233  -1.01950   4.57133
H     0.43391  -1.20170   5.62859
C     0.49884   0.28271   4.08867
Cl    0.10515   1.55439   5.17908
C     0.65895   0.51096   2.71634
C     0.70916   1.82338   2.06045
C     1.39687   2.95051   2.52709
Cl    2.48525   2.86214   3.85698
C     1.29173   4.14802   1.83032
H     1.80716   5.02374   2.19119
C     0.54725   4.18031   0.66191
H     0.42987   5.09709   0.10780
C     0.00861   2.99915   0.18088
H    -0.51020   2.94296  -0.77017
N     0.10337   1.85582   0.85373
O    -0.69921   0.51556  -1.40278
