28

Cd    0.00000   0.00000   0.00000
Cl    0.37945  -1.51867   1.87812
S     1.07316   2.28802   1.06604
N    -2.49400  -0.05778  -0.28959
N    -1.39297   0.95045   1.94027
N    -0.49322   1.20628   2.92003
H    -0.56890   0.70395   3.80322
N     1.52792   1.99737   3.64788
H     1.32091   1.54562   4.52781
N    -2.49788  -0.74190   3.17810
H    -1.63810  -1.03733   3.62829
H    -3.11190  -1.52796   3.02181
C    -3.15551  -0.28200  -1.41237
H    -2.57400  -0.20374  -2.32205
C    -4.50319  -0.61663  -1.43317
H    -5.00541  -0.79717  -2.36989
C    -5.17936  -0.71741  -0.22799
H    -6.22871  -0.97131  -0.20294
C    -4.48654  -0.49263   0.95106
H    -4.98313  -0.55096   1.90765
C    -3.13705  -0.16112   0.87546
C    -2.28731   0.04077   2.06723
C     0.69680   1.77872   2.61681
C     2.87192   2.49695   3.49161
H     3.57749   1.68318   3.30452
H     3.16173   3.02577   4.39719
H     2.89419   3.17971   2.64507
O     0.20669  -0.75879  -1.45052
