38

Au    0.00000   0.00000   0.00000
P     2.16061  -0.56408  -0.45955
O     1.93913   0.71841   1.49512
C     3.33371   0.77157  -0.79514
C     3.40980   1.84748   0.11478
C     4.23321   2.94359  -0.15249
C     4.99056   2.96658  -1.30279
C     4.91346   1.91090  -2.20727
C     4.08276   0.83299  -1.96815
C     2.53955   1.76346   1.25719
C     2.25470  -1.53492  -2.00629
C     1.45377  -1.09309  -3.05698
C     1.42967  -1.77905  -4.25561
C     2.19554  -2.92471  -4.40684
C     2.98417  -3.37700  -3.36162
C     3.01655  -2.68727  -2.16223
C     2.97473  -1.66551   0.72695
C     2.20156  -2.67346   1.29171
C     2.76560  -3.54699   2.20246
C     4.09970  -3.41276   2.55272
C     4.86934  -2.40661   1.99171
C     4.31216  -1.52923   1.07861
H     4.27120   3.75892   0.55481
H     5.63870   3.80442  -1.50981
H     5.50723   1.93460  -3.10889
H     4.02416   0.02793  -2.68690
H     2.36482   2.66595   1.85513
H     0.84993  -0.20284  -2.91977
H     0.80883  -1.42897  -5.06677
H     2.17193  -3.46929  -5.33887
H     3.57577  -4.27310  -3.47935
H     3.63236  -3.04212  -1.34700
H     1.15881  -2.76243   1.01479
H     2.16477  -4.32845   2.64327
H     4.54034  -4.09207   3.26713
H     5.90878  -2.30293   2.26726
H     4.91214  -0.74287   0.63991
O    -1.60740   0.33108   0.17070
