61

Hg    0.00000   0.00000   0.00000
Cl    0.06489   2.45327   0.31985
S     2.72205  -0.55793   0.51033
N     4.76484   0.58945   1.66859
H     5.29032   1.41304   1.91996
H     5.18547  -0.32146   1.63517
C     3.56482   0.77522   1.10365
N     3.10638   2.02746   1.03909
H     2.16721   2.22687   0.65609
N     3.87136   3.03963   1.51740
C     3.43572   4.23453   1.38019
H     2.48340   4.43041   0.88046
C     4.16581   5.36757   1.87560
C     3.71066   6.66442   1.62378
H     2.81429   6.80610   1.03742
C     4.38378   7.76364   2.09994
H     3.99316   8.74181   1.87335
C     5.55107   7.62499   2.86973
C     6.00892   6.31845   3.11378
H     6.90826   6.15389   3.68343
C     5.33513   5.22543   2.62905
H     5.70027   4.23115   2.83102
N     6.19153   8.72040   3.38923
C     5.86349  10.04026   2.90056
H     5.96730  10.11016   1.81275
H     6.52944  10.77039   3.35397
H     4.83877  10.30882   3.16940
C     7.44241   8.56133   4.09138
H     7.32331   7.85191   4.91074
H     7.73938   9.51769   4.51679
H     8.24657   8.21060   3.43391
S    -0.48788  -0.87658   2.54374
N     1.17182  -0.45025   4.53297
H     1.76781   0.14914   5.08275
H     1.07262  -1.43016   4.72718
C     0.55384   0.07734   3.47386
N     0.73633   1.37650   3.22972
H     0.25630   1.82668   2.43564
N     1.58722   2.11055   3.99176
C     1.59623   3.37585   3.79748
H     0.92257   3.82886   3.06422
C     2.46919   4.26307   4.51084
C     2.29484   5.64658   4.40999
H     1.48746   6.03469   3.80631
C     3.11640   6.52231   5.07563
H     2.93199   7.57789   4.97070
C     4.18444   6.06069   5.86350
C     4.35729   4.66810   5.96076
H     5.15386   4.25913   6.56004
C     3.52001   3.79815   5.30719
H     3.66987   2.73329   5.39311
N     5.03353   6.93315   6.48758
C     4.70518   8.33827   6.54697
H     3.73348   8.50750   7.02304
H     4.68477   8.76698   5.54337
H     5.46243   8.86387   7.12363
C     6.06020   6.44006   7.37319
H     6.71455   5.74179   6.84680
H     5.64148   5.93179   8.24931
H     6.66897   7.27184   7.72123
O    -0.76587  -0.57082  -1.34540
