62

C    -0.07245   1.45351  -1.35282
C     0.63116   1.26036  -2.54761
C     0.53332   2.42544  -3.36071
C     1.00262   2.81704  -4.61064
H     1.62289   2.15931  -5.20291
C     0.66112   4.07025  -5.07764
H     1.01876   4.39109  -6.04530
C    -0.13753   4.93191  -4.32899
H    -0.38514   5.90412  -4.72859
C    -0.61719   4.56510  -3.08532
H    -1.23572   5.23696  -2.50935
C    -0.27905   3.31099  -2.60409
C    -1.34779   3.31853  -0.35264
H    -1.30107   2.65923   0.51781
H    -2.39214   3.47923  -0.63529
H    -0.89915   4.28018  -0.09488
C    -1.50049  -1.07758  -0.99640
H    -1.67828  -0.68911  -2.00106
C    -2.08291  -0.38356   0.07036
H    -2.65223   0.50922  -0.18344
C    -2.53175  -1.05919   1.35059
H    -2.84477  -2.07985   1.12432
H    -3.40698  -0.53612   1.74255
C    -1.43395  -1.06053   2.43223
H    -1.53413  -0.15622   3.03840
H    -1.56960  -1.91603   3.10376
C    -0.03362  -1.08769   1.86382
H     0.71476  -0.62776   2.51030
C     0.40314  -1.95041   0.88247
H     1.47728  -2.10434   0.78125
C    -0.46124  -3.03291   0.27599
H    -1.18347  -3.37118   1.02042
H     0.16548  -3.89105   0.02270
C    -1.18847  -2.55740  -0.99654
H    -0.55901  -2.76651  -1.86756
H    -2.11742  -3.12429  -1.13060
C     0.85951  -1.11085  -4.04390
C     1.31577  -2.40506  -4.24786
H     2.10686  -2.79612  -3.62569
C     0.75238  -3.17603  -5.24936
H     1.10414  -4.18305  -5.41448
C    -0.26700  -2.65632  -6.03181
H    -0.70832  -3.25949  -6.81069
C    -0.72545  -1.36793  -5.81179
H    -1.52225  -0.96449  -6.41792
C    -0.16730  -0.59031  -4.81061
H    -0.52344   0.41169  -4.62742
C     3.08426   0.46505  -3.42236
C     3.84562   1.27682  -2.59702
H     3.52372   1.44736  -1.57861
C     5.00566   1.84204  -3.09540
H     5.60382   2.47724  -2.46072
C     5.39677   1.59044  -4.40092
H     6.30151   2.03327  -4.78956
C     4.63187   0.76649  -5.20920
H     4.93639   0.56686  -6.22582
C     3.46759   0.19348  -4.72266
H     2.87014  -0.44409  -5.35733
N    -0.61336   2.69539  -1.41863
S     1.57889  -0.18799  -2.66113
Rh    0.00000   0.00000   0.00000
O     1.53969   0.52867   0.26901
