51

C     0.97893   0.09009   2.94398
H     0.87129  -0.97605   3.18721
C    -0.51143   0.55491   2.77613
C     2.41588  -1.03293   1.35883
H     2.93999  -0.88506   0.40671
H     3.15603  -1.19884   2.15157
C     1.52274  -2.24185   1.20385
C     1.87235  -3.48876   1.70249
H     2.80771  -3.61582   2.22517
C     1.01048  -4.56003   1.52060
H     1.26932  -5.53557   1.90241
C    -0.18451  -4.35479   0.84836
H    -0.88142  -5.16020   0.68590
C    -0.47097  -3.08364   0.38024
H    -1.37904  -2.85183  -0.16197
C     2.29741   1.42587   1.32195
H     2.62789   1.36458   0.27887
H     3.18166   1.55420   1.95737
C     1.40342   2.63615   1.48047
C     0.21494   2.83971   0.71985
C    -0.48222   4.06089   0.89823
H    -1.37460   4.19401   0.30767
C    -0.06701   5.02015   1.78038
H    -0.61700   5.93810   1.91793
C     1.09151   4.79834   2.52435
C     1.81190   3.62211   2.35695
H     2.72018   3.50492   2.93153
C     1.68453   0.78643   4.10552
H     2.76773   0.74139   3.96618
H     1.37934   1.83254   4.13374
C     1.34240   0.14886   5.46003
H     0.25861   0.00953   5.50929
C     2.03626  -1.20062   5.64085
H     1.74246  -1.91955   4.87699
H     1.77769  -1.62468   6.60762
H     3.11775  -1.07841   5.60362
C     1.75838   1.09893   6.58073
H     1.53087   0.66448   7.55073
H     1.22596   2.04219   6.49608
H     2.82687   1.30005   6.53601
N     0.36246  -2.06682   0.55455
N     1.60897   0.16334   1.62237
N     1.55123   5.77202   3.45893
O    -0.96715   0.14958   1.64560
O    -1.09755   1.14445   3.64305
O     1.21669  -0.13917  -1.11929
O    -0.30571   2.01303  -0.13787
O     2.53265   5.49776   4.12750
O     0.94017   6.81905   3.54038
Re    0.00000   0.00000   0.00000
O    -1.37976  -0.27077  -0.86339
