49

Pd    0.00000   0.00000   0.00000
C     1.99574   0.64545   0.17795
H     2.32954   1.52609   0.71835
H     2.56349  -0.25272   0.41690
C     1.57260   0.82313  -1.15729
H     1.48498   1.83348  -1.55072
C     1.03356  -0.23567  -1.88086
H     1.40663  -1.25181  -1.71472
H     0.65922  -0.05116  -2.88253
C    -0.62594  -0.12057   1.92471
C    -0.11130  -2.50945   2.60929
C     0.92408  -2.58495   1.48838
H     0.47434  -2.27428   0.53185
H     1.25851  -3.61443   1.38301
H     1.78644  -1.96173   1.72829
C     0.52388  -3.03863   3.90101
H     1.26055  -2.33344   4.28047
H     1.02471  -3.98079   3.69585
H    -0.21711  -3.22389   4.67362
C    -1.34208  -3.33367   2.21727
H    -2.08880  -3.31723   3.00811
H    -1.05884  -4.36478   2.02604
H    -1.78401  -2.91289   1.31402
C    -1.27403  -0.77845   3.95141
H    -1.37698  -1.41715   4.80191
C    -1.76689   0.46232   3.75132
H    -2.36520   1.08515   4.38441
C    -1.85710   2.01425   1.80964
H    -2.51458   2.55605   2.49546
H    -2.43168   1.67099   0.93760
C    -0.77182   2.93894   1.31560
C    -0.01520   3.70512   2.16554
H    -0.13514   3.59986   3.23467
C     0.90899   4.63726   1.66968
H     1.49913   5.21462   2.36602
C     1.04097   4.83984   0.32367
H     1.72583   5.58231  -0.06076
C     0.28514   4.07526  -0.58694
C     0.35479   4.23501  -1.98939
H     1.00178   4.99657  -2.40309
C    -0.39314   3.41953  -2.79456
H    -0.37022   3.51947  -3.86897
C    -1.19153   2.42188  -2.20028
H    -1.77455   1.74391  -2.81196
C    -0.59275   3.07568  -0.08731
N    -0.57268  -1.13054   2.82368
N    -1.36461   0.84637   2.50243
N    -1.28621   2.24897  -0.90882
O    -1.41996  -0.75052  -0.37807
