39

Pd    0.00000   0.00000   0.00000
I     0.77119   0.06473  -2.48980
O     4.74206  -4.78280   1.04051
H     5.25187  -5.55100   1.31805
O    -4.54877   4.82193  -1.58838
H    -5.13645   5.58441  -1.60678
N     1.07122  -1.59373   0.29599
N    -1.07249   1.59502  -0.28352
C     0.54347  -2.79899   0.10411
H    -0.48940  -2.82740  -0.24654
C     1.25895  -3.95665   0.33297
H     0.79831  -4.91689   0.16084
C     2.57302  -3.86405   0.78210
C     3.11113  -2.59646   0.97202
H     4.12964  -2.48928   1.30555
C     2.32809  -1.48862   0.71491
H     2.71214  -0.47634   0.85079
C     3.37080  -5.10339   1.09244
H     3.13548  -5.87080   0.33498
C     2.96552  -5.62911   2.47672
H     3.50660  -6.54598   2.70357
H     1.89961  -5.83624   2.50721
H     3.20117  -4.88485   3.23416
C    -2.34327   1.49502  -0.65936
H    -2.72409   0.48552  -0.82159
C    -3.14692   2.60454  -0.83190
H    -4.17315   2.50192  -1.14237
C    -2.61159   3.86848  -0.61219
C    -1.27611   3.95636  -0.23032
H    -0.81089   4.91422  -0.05732
C    -0.54356   2.79714  -0.07569
H     0.50534   2.82176   0.22429
C    -3.46013   5.10632  -0.74002
H    -2.84376   5.91109  -1.17639
C    -3.92961   5.53961   0.65598
H    -4.51537   6.45456   0.58822
H    -3.07696   5.71823   1.30492
H    -4.54698   4.75806   1.09328
O    -0.49087  -0.04373   1.57469
