51

Pd    0.00000   0.00000   0.00000
C     0.37151  -2.05939  -2.50506
C    -0.36718  -2.79831  -1.58182
H    -0.65929  -2.34045  -0.62441
C    -0.74904  -4.09409  -1.88016
H    -1.32430  -4.66488  -1.16680
C    -0.39851  -4.65471  -3.09812
H    -0.70174  -5.66382  -3.33409
C     0.33501  -3.92243  -4.01850
H     0.60303  -4.36213  -4.96801
C     0.72230  -2.62743  -3.72577
H     1.29137  -2.05551  -4.44561
C     0.56252   0.69441  -3.48613
H     1.28413   0.45745  -4.27364
H    -0.44900   0.47688  -3.84022
C     0.65875   2.15324  -3.04922
H    -0.05992   2.33279  -2.24633
H     0.42366   2.81800  -3.87694
H     1.65830   2.39232  -2.68606
C     2.69264  -0.49527  -1.87927
H     3.10747  -1.03066  -2.73874
H     3.09190   0.52455  -1.87521
C     3.03605  -1.19692  -0.56899
H     4.10645  -1.14028  -0.34932
H     2.74152  -2.25070  -0.63234
C     2.81083   1.21529   0.95541
C     4.13715   1.36411   1.35069
H     4.72229   0.48904   1.60085
C     4.69297   2.62703   1.43582
H     5.72157   2.74275   1.74443
C     3.92995   3.74397   1.13108
H     4.36753   4.72862   1.20127
C     2.60584   3.60149   0.74841
H     2.01059   4.47399   0.52416
C     2.04252   2.34017   0.66112
H     0.98316   2.22404   0.38521
C     2.55381  -1.26136   2.32267
C     3.16471  -2.50992   2.35576
H     3.40437  -3.02878   1.43867
C     3.46675  -3.09256   3.57432
H     3.94494  -4.06084   3.60070
C     3.15084  -2.44354   4.75634
H     3.38380  -2.90778   5.70316
C     2.52633  -1.20608   4.72512
H     2.26862  -0.70653   5.64672
C     2.22414  -0.61536   3.51396
H     1.71273   0.33674   3.47231
Cl   -0.82267   0.20647   2.10471
P     2.04491  -0.42851   0.80082
P     0.84521  -0.37487  -2.02449
O    -1.40977   0.44198  -0.73465
