43

Ti    0.00000   0.00000   0.00000
C    -1.31961  -1.83443   0.24527
C    -0.10419  -2.24554  -0.37707
H     0.60088  -2.97740  -0.00376
C    -0.02549  -1.64613  -1.65333
H     0.74308  -1.83860  -2.39176
C    -1.16923  -0.84603  -1.83212
H    -1.45437  -0.33220  -2.74309
C    -1.97275  -0.96959  -0.67390
H    -2.97125  -0.56247  -0.57840
C    -1.86438  -2.31925   1.57881
C    -3.30097  -2.81418   1.34193
H    -3.96337  -2.01100   1.03692
H    -3.70514  -3.28136   2.23554
H    -3.28981  -3.55782   0.54794
C    -1.02877  -3.52620   2.03575
H    -0.98593  -4.26432   1.23783
H    -1.47949  -4.00636   2.89962
H    -0.01450  -3.22080   2.28747
C    -1.80890  -1.19673   2.68667
C    -2.66262   0.03610   2.33688
H    -2.59274   0.75522   3.15219
H    -3.70921  -0.23621   2.22595
H    -2.30915   0.52728   1.42827
C    -2.31001  -1.70257   4.04429
H    -1.75734  -2.56213   4.40565
H    -3.36207  -1.96805   3.97820
H    -2.21352  -0.91288   4.78639
C    -0.36889  -0.65602   2.78234
N     0.24223  -0.22871   1.77715
C     0.27524  -0.50543   4.11525
C     0.72601  -1.58067   4.87122
H     0.60662  -2.58998   4.50700
C     1.35847  -1.35935   6.08220
H     1.71094  -2.19952   6.66226
C     1.54310  -0.06917   6.54892
H     2.03187   0.09817   7.49707
C     1.11262   1.00644   5.78976
H     1.26837   2.01520   6.14202
C     0.49195   0.79149   4.57299
H     0.16777   1.62322   3.96213
Cl   -0.82640   1.99807  -0.10293
O     1.54459   0.34841  -0.46405
