69

Hf    0.00000   0.00000   0.00000
C     1.39545   1.97598  -0.51743
C     0.31148   2.00660  -1.42851
H    -0.44304   2.77404  -1.51013
C     0.40975   0.89526  -2.29232
H    -0.21749   0.71672  -3.15491
C     1.56848   0.17626  -1.94200
H     2.02309  -0.60772  -2.52782
C     2.17317   0.83068  -0.84624
H     3.15876   0.60506  -0.46895
C     1.77495   3.06257   0.47402
C     3.19032   3.53464   0.08536
H     3.22085   3.68567  -0.99161
H     3.95423   2.80625   0.33813
H     3.43693   4.48098   0.55896
C     0.83609   4.25884   0.26682
H     0.90217   4.59883  -0.76423
H     1.11660   5.09136   0.90506
H    -0.19197   3.98240   0.47947
C     1.69398   2.57812   1.97634
C     2.56885   1.33423   2.22292
H     3.60688   1.52260   1.95988
H     2.19341   0.47955   1.65973
H     2.53678   1.08172   3.28158
C     2.25087   3.65852   2.90892
H     2.31211   3.28332   3.92461
H     1.66614   4.57040   2.91078
H     3.26436   3.90920   2.60593
C     0.24365   2.08358   2.25742
N    -0.19121   1.10209   1.61211
C    -0.69038   2.65451   3.35541
C    -1.15096   4.08350   3.05041
H    -1.72382   4.10423   2.12670
H    -0.32543   4.78113   2.96542
H    -1.79822   4.42688   3.85584
C    -0.05914   2.59594   4.75476
H    -0.85078   2.56803   5.50142
H     0.55200   3.46750   4.96381
H     0.54284   1.69779   4.87459
C    -1.95258   1.77730   3.38517
H    -2.68245   2.20249   4.07058
H    -1.70780   0.77091   3.71309
H    -2.39431   1.70975   2.39407
C     0.48016  -1.79467   1.62586
C    -0.85553  -1.94344   1.14597
C    -0.78997  -2.30538  -0.22819
C     0.57896  -2.39432  -0.59518
C     1.36528  -2.06991   0.54338
C     0.84842  -1.63188   3.07611
H     1.92737  -1.60739   3.20664
H     0.46354  -2.47594   3.65120
H     0.42569  -0.71745   3.49391
C    -2.11353  -1.87001   1.96382
H    -2.79364  -1.11371   1.56857
H    -1.88640  -1.62378   2.99759
H    -2.63091  -2.83079   1.94525
C    -1.94845  -2.75192  -1.07399
H    -1.78626  -2.51635  -2.12525
H    -2.86996  -2.27077  -0.75499
H    -2.07853  -3.83390  -0.98972
C     1.06734  -3.05388  -1.85587
H     0.87282  -4.12769  -1.80297
H     2.13914  -2.92265  -1.98782
H     0.55493  -2.67428  -2.74024
C     2.85510  -2.25325   0.64027
H     3.28179  -1.66782   1.45279
H     3.35366  -1.96483  -0.28427
H     3.09293  -3.30288   0.82834
O    -1.56276   0.31368  -0.42647
