59

Pd    0.00000   0.00000   0.00000
Cl    0.75894  -1.49050   1.52626
P    -0.97429   0.91194  -1.81206
N    -2.16837  -0.30375  -1.48388
N    -2.63967  -1.65048   0.18115
C    -1.71156  -0.89262  -0.34552
C    -2.53233  -2.27996   1.45261
C    -2.41590  -1.48074   2.59352
C    -2.30764  -2.10754   3.82422
C    -2.30377  -3.49002   3.94061
C    -2.40255  -4.25559   2.78921
C    -2.50701  -3.67007   1.53681
C    -0.19244   0.34817  -3.42427
C     0.94455   1.32446  -3.72135
C    -1.15384   0.20635  -4.59918
C     0.41297  -1.01515  -3.06186
C    -1.88793   2.55251  -1.84231
C    -2.86418   2.76326  -2.99343
C    -2.60191   2.57783  -0.48716
C    -0.79520   3.62336  -1.82945
C    -3.53919  -0.72043  -1.79101
C    -3.89072  -1.60819  -0.58245
C    -2.36978   0.01551   2.50418
C    -2.55599  -4.52563   0.30583
C    -2.14669  -4.13883   5.28064
H    -2.20472  -1.50258   4.71297
H    -2.37462  -5.33326   2.86259
H     1.50525   1.52675  -2.80523
H     0.56954   2.26332  -4.12233
H     1.62710   0.89601  -4.45344
H    -2.01057  -0.40912  -4.33123
H    -1.51447   1.17266  -4.94025
H    -0.64087  -0.27247  -5.43242
H     1.02489  -1.38270  -3.88420
H     1.06010  -0.92870  -2.16905
H    -0.36574  -1.75345  -2.86161
H    -2.33389   2.93436  -3.92669
H    -3.47616   3.64238  -2.79377
H    -3.52600   1.90967  -3.12405
H    -2.97822   3.57741  -0.27655
H    -1.89321   2.30581   0.30637
H    -3.44361   1.88692  -0.46121
H    -0.33790   3.74078  -2.80802
H    -0.01546   3.35439  -1.11338
H    -1.21468   4.58456  -1.53703
H    -3.57012  -1.28569  -2.72810
H    -4.21185   0.13532  -1.88395
H    -4.19163  -2.61306  -0.88258
H    -4.68340  -1.18036   0.04010
H    -2.52084   0.45704   3.48571
H    -3.12964   0.40198   1.82411
H    -1.37088   0.33316   2.14217
H    -3.58687  -4.71360   0.00026
H    -2.02678  -4.04634  -0.51544
H    -2.08696  -5.48607   0.50196
H    -2.57869  -5.13681   5.28583
H    -2.61673  -3.54262   6.05948
H    -1.08646  -4.22641   5.51831
O     1.31348   0.98757   0.14830
