37

Au    0.00000   0.00000   0.00000
Cl    1.07879  -1.62122   1.06725
Cl    1.48974   1.52655   0.81868
N    -1.01466   1.52051  -1.00338
N    -2.49627   5.23873  -4.04199
H    -1.63209   4.86994  -4.41540
O    -4.27182   4.88649  -2.68316
O    -1.95144   5.17296  -6.67846
O    -3.92073   6.15639  -7.11283
C    -2.34096   1.48092  -1.12108
H    -2.84107   0.62511  -0.69349
C    -3.04312   2.47040  -1.77981
H    -4.11906   2.43154  -1.84746
C    -2.35272   3.53285  -2.35628
C    -0.96852   3.56330  -2.21483
H    -0.37421   4.37423  -2.60531
C    -0.34043   2.54138  -1.52843
H     0.72759   2.54696  -1.36945
C    -3.14718   4.61243  -3.04189
C    -3.13084   6.23334  -4.87873
H    -4.19721   6.26243  -4.63695
C    -2.50331   7.62885  -4.64250
H    -1.43526   7.55836  -4.87890
C    -3.14829   8.67597  -5.54461
H    -4.22442   8.69738  -5.39181
H    -2.95347   8.47337  -6.59400
H    -2.74752   9.65901  -5.31023
C    -2.66704   8.02030  -3.17630
H    -2.22259   8.99645  -3.00044
H    -2.18360   7.30156  -2.51961
H    -3.72097   8.06609  -2.91410
C    -2.92287   5.79182  -6.32339
C    -3.81275   5.80793  -8.49049
H    -3.08134   6.45098  -8.98389
H    -4.79961   5.95709  -8.92042
H    -3.49710   4.76827  -8.59299
O    -1.06804  -1.10726  -0.59645
