53

N     0.73558   0.73605   1.64408
H     4.53052   1.90755   5.11203
H     0.42116   3.44099   5.06386
H     6.27064   2.06064   4.58765
H     3.33682   2.42216   1.56769
C     1.19533   1.38976   2.63079
C     2.58005   1.19560   3.15595
H     3.00514   0.26722   2.76853
H     2.56517   1.16947   4.24431
C     3.39357   2.40952   2.66318
C     2.73595   3.68712   3.19566
H     3.29095   4.55784   2.84123
H     2.78266   3.68018   4.28568
C     1.28467   3.79145   2.73457
H     1.24318   3.83635   1.64375
H     0.83161   4.70452   3.12701
C     0.44490   2.57569   3.18875
C     4.84733   2.33427   3.07186
C     5.22983   2.08979   4.31482
C     5.82669   2.59098   1.96828
H     5.63641   3.56393   1.51599
H     5.71890   1.83715   1.18879
H     6.84879   2.56948   2.33606
C    -0.98488   2.70251   2.65264
H    -1.43362   3.61705   3.03634
H    -1.59022   1.85871   2.97527
H    -0.98786   2.73970   1.56454
C     1.12714  -0.87224  -1.82500
H     2.09436  -0.54611  -2.18673
C    -0.12796  -0.43105  -2.30641
H    -0.28241   0.29834  -3.09240
C    -1.12890  -1.18444  -1.67141
H    -2.19051  -1.13924  -1.88158
C    -0.49781  -2.11128  -0.80635
H    -0.99622  -2.89524  -0.24910
C     0.89635  -1.93524  -0.92312
H     1.65741  -2.54887  -0.45830
C    -0.17953   1.55632   5.38964
C    -0.48738   1.84820   6.72163
H    -0.26420   2.83320   7.10964
C    -1.06898   0.90226   7.54015
H    -1.29884   1.15395   8.56532
C    -1.36546  -0.35887   7.05011
H    -1.82726  -1.09755   7.68706
C    -1.06640  -0.65747   5.73246
H    -1.29669  -1.63455   5.33403
C    -0.47693   0.28159   4.90627
H    -0.26174   0.01532   3.88168
N     0.47320   2.52379   4.64200
O     1.42858  -0.24970   1.04421
Cl   -1.94358  -0.09547   1.03511
Ti    0.00000   0.00000   0.00000
O     0.04245   1.55284  -0.55622
