28

Cd    0.00000   0.00000   0.00000
N    -1.56780  -1.36472   1.37170
S     0.46212  -3.08360   1.46661
C    -0.00013  -4.06715  -0.00017
H     0.86357  -4.68322  -0.23832
H    -0.86382  -4.68324   0.23795
C    -1.18292  -2.51797   1.89689
C    -1.98257  -3.28535   2.72773
H    -1.60890  -4.21179   3.13400
C    -3.25490  -2.81788   3.01669
H    -3.90843  -3.38275   3.66402
C    -3.66864  -1.61738   2.46028
H    -4.65158  -1.22126   2.65720
C    -2.79081  -0.92383   1.64235
H    -3.07403   0.01576   1.18144
I     1.74242   1.02509   1.76276
S    -0.46242  -3.08353  -1.46689
C     1.18261  -2.51792  -1.89725
N     1.56741  -1.36451  -1.37232
C     2.79036  -0.92357  -1.64313
C     3.66823  -1.61723  -2.46092
C     3.25459  -2.81791  -3.01701
C     1.98231  -3.28542  -2.72792
H     1.60871  -4.21199  -3.13397
H     3.90817  -3.38289  -3.66421
H     4.65113  -1.22106  -2.65798
H     3.07350   0.01617  -1.18246
O    -1.07166   0.63111  -1.08432
