23

Pt    0.00000   0.00000   0.00000
Cl    0.98523   1.47948   1.61463
Cl   -1.91408   1.38450  -0.10951
Cl    1.85221  -1.51588   0.20214
O     1.96235   0.28085  -2.12040
H     2.16716  -0.52603  -1.57523
O    -1.12078  -0.28465   2.66029
H    -0.52815   0.51389   2.62764
N     0.97821   0.96466  -1.46915
N    -0.93356  -0.96809   1.49490
C     0.73513   2.15052  -1.86235
H    -0.06826   2.67140  -1.35687
C     1.46843   2.80203  -2.97003
H     2.51609   2.50499  -2.94948
H     1.37202   3.88136  -2.91855
H     1.05584   2.45519  -3.91842
C    -1.38061  -2.15736   1.42679
H    -1.24897  -2.66660   0.47979
C    -2.08030  -2.84451   2.53444
H    -1.81264  -2.39903   3.48998
H    -1.85058  -3.90634   2.52508
H    -3.15590  -2.72914   2.39599
O    -0.64969  -0.93958  -1.19063
