37

Pt    0.00000   0.00000   0.00000
Cl    1.49397   1.82191  -0.31565
Cl   -1.54648   1.18563  -1.37390
O    -2.28334   0.68517   1.63878
H    -2.49432  -0.12496   1.11552
N    -0.90958   0.82673   1.62065
C    -0.43236   1.51875   2.58055
C     0.99601   1.84574   2.82650
H     1.26786   2.71399   2.22106
H     1.66480   1.02889   2.55768
C     1.02459   2.21144   4.31272
H     1.86668   2.85296   4.56219
H     1.09185   1.30351   4.91304
C    -0.32511   2.89326   4.53807
H    -0.28442   3.92356   4.18243
H    -0.61960   2.90362   5.58530
C    -1.28820   2.08092   3.67164
H    -1.73054   1.24644   4.22214
H    -2.11385   2.66106   3.25810
Cl   -1.49539  -1.82187   0.31390
O     2.28185  -0.68553  -1.63959
H     2.49289   0.12449  -1.11617
N     0.90810  -0.82705  -1.62138
C     0.43086  -1.51909  -2.58127
C    -0.99751  -1.84609  -2.82724
H    -1.26936  -2.71431  -2.22176
H    -1.66627  -1.02919  -2.55847
C    -1.02601  -2.21185  -4.31346
H    -1.86807  -2.85340  -4.56295
H    -1.09325  -1.30396  -4.91383
C     0.32370  -2.89368  -4.53880
H     0.28303  -3.92397  -4.18315
H     0.61822  -2.90405  -5.58602
C     1.28673  -2.08130  -3.67235
H     1.72906  -1.24683  -4.22286
H     2.11239  -2.66142  -3.25880
O     1.06928  -0.82196   0.95054
