64

Mn    0.00000   0.00000   0.00000
P     0.86347   0.32226   2.07566
P     1.71417   1.38888  -0.53762
O    -0.88214  -0.31781  -2.77597
O    -2.00217   2.11018   0.20709
O    -2.08427  -1.84099   0.92378
C    -0.49770  -0.22967  -1.69611
C    -1.18884   1.29792   0.14205
C    -1.23285  -1.15758   0.56380
C     3.04198   1.22040   0.69887
C     2.63812   0.71299   1.93970
C     3.56927   0.51809   2.94804
C     4.89815   0.83830   2.71800
C     5.29762   1.34051   1.49060
C     4.37443   1.53002   0.47415
C     0.77094  -0.91245   3.40952
C     0.90696  -0.49977   4.73571
C     0.84732  -1.42731   5.75767
C     0.64413  -2.76835   5.47133
C     0.49624  -3.17951   4.15815
C     0.55768  -2.25754   3.12808
C     0.19838   1.78003   2.94338
C     0.95437   2.87999   3.32740
C     0.33567   3.96334   3.92689
C    -1.02999   3.95071   4.15154
C    -1.78491   2.84501   3.78979
C    -1.17401   1.76474   3.18572
C     2.57660   1.35191  -2.13977
C     2.53441   0.22327  -2.95111
C     3.20101   0.21650  -4.16374
C     3.90989   1.33148  -4.57562
C     3.94731   2.46229  -3.77465
C     3.28217   2.47876  -2.56403
C     1.29750   3.16002  -0.44023
C     0.28389   3.58965  -1.29495
C    -0.14459   4.90119  -1.26030
C     0.43268   5.79185  -0.36761
C     1.45030   5.37303   0.47181
C     1.88842   4.06053   0.43649
H     3.26380   0.10258   3.89792
H     5.62696   0.67942   3.49875
H     6.33751   1.57278   1.31554
H     4.69228   1.89784  -0.49119
H     1.04620   0.54840   4.96638
H     0.95551  -1.10127   6.78208
H     0.59613  -3.48911   6.27401
H     0.33175  -4.22151   3.92954
H     0.44623  -2.59615   2.10828
H     2.02469   2.88525   3.17239
H     0.92508   4.81991   4.22048
H    -1.50801   4.80135   4.61403
H    -2.84871   2.83007   3.97411
H    -1.75201   0.89255   2.89713
H     1.99067  -0.65752  -2.64189
H     3.16334  -0.66475  -4.78590
H     4.42951   1.32464  -5.52222
H     4.49324   3.33748  -4.09627
H     3.29838   3.37119  -1.95198
H    -0.15875   2.88123  -1.98797
H    -0.93134   5.22977  -1.92282
H     0.09079   6.81545  -0.33109
H     1.90797   6.07066   1.15821
H     2.69757   3.74221   1.07956
O     1.20517  -1.12496  -0.06734
