33

Re    0.00000   0.00000   0.00000
O    -0.16411   3.07872  -0.18778
O     3.06423   0.02910   0.42229
O    -0.25658  -0.04596   3.08099
N    -2.24105  -0.09007  -0.40076
N    -2.13393   0.39807  -2.72747
H    -2.72670   0.60476  -3.51977
N     0.13264  -0.04059  -2.22595
N     1.67323   0.76051  -3.77324
C    -0.09352   1.93556  -0.11742
C     1.92936   0.02186   0.25743
C    -0.16848  -0.00701   1.93741
C    -3.01310  -0.40663   0.64529
H    -2.49882  -0.62705   1.57106
C    -4.38831  -0.47389   0.59600
H    -4.94560  -0.73941   1.47849
C    -5.02495  -0.19092  -0.60574
H    -6.10009  -0.21870  -0.68886
C    -4.24423   0.11292  -1.69762
H    -4.69166   0.32148  -2.65802
C    -2.84894   0.13695  -1.56785
C    -0.82060   0.25181  -3.02898
H    -0.59915   0.40576  -4.08577
C     1.40924  -0.12889  -2.82210
C     2.31599  -1.10975  -2.42610
H     2.04584  -1.85664  -1.69623
C     3.56394  -1.11477  -3.02273
H     4.29418  -1.85712  -2.73840
C     3.85936  -0.15981  -3.98411
H     4.82690  -0.12367  -4.45840
C     2.87026   0.74670  -4.33021
H     3.03414   1.50219  -5.08733
O    -0.12957  -1.64408  -0.05214
