51

Au    0.00000   0.00000   0.00000
Cl   -1.54086  -1.26105   1.06887
Cl    1.56493   1.23192  -1.06851
C    -1.29327   1.53870  -0.08292
N    -2.22780   1.74178  -1.01751
C    -2.91353   2.88841  -0.73589
H    -3.70807   3.24078  -1.36119
C    -2.38054   3.39752   0.40278
H    -2.62448   4.27637   0.96365
N    -1.38277   2.54900   0.78848
C    -2.48124   0.89442  -2.13628
C    -3.46247  -0.09132  -2.02751
C    -3.66077  -0.93063  -3.11319
H    -4.40588  -1.70910  -3.04179
C    -2.92476  -0.79515  -4.28215
C    -1.99810   0.23407  -4.37397
H    -1.44235   0.36857  -5.29017
C    -1.76467   1.09909  -3.31553
C    -4.28152  -0.23140  -0.78369
H    -3.66254  -0.59330   0.03714
H    -5.08862  -0.94077  -0.94161
H    -4.71098   0.72498  -0.48702
C    -3.12516  -1.74302  -5.42273
H    -4.14102  -2.13018  -5.43441
H    -2.44395  -2.58779  -5.31870
H    -2.91663  -1.25877  -6.37358
C    -0.79294   2.22920  -3.44294
H     0.09511   2.04493  -2.83865
H    -1.23673   3.16546  -3.10554
H    -0.48244   2.34450  -4.47738
C    -0.56253   2.72646   1.94160
C     0.58305   3.51595   1.83980
C     1.38738   3.63833   2.96275
H     2.28632   4.23331   2.89814
C     1.06594   3.01440   4.16001
C    -0.11243   2.28496   4.23927
H    -0.38835   1.82161   5.17498
C    -0.94902   2.13363   3.14390
C     0.92839   4.21555   0.56363
H     1.23794   3.49228  -0.19074
H     1.74585   4.91231   0.72473
H     0.07293   4.76555   0.17287
C     1.97370   3.12342   5.34477
H     2.67618   2.28973   5.34370
H     1.40915   3.08499   6.27324
H     2.54724   4.04645   5.31361
C    -2.23584   1.37892   3.25400
H    -2.45024   1.14883   4.29365
H    -2.18243   0.44133   2.70100
H    -3.06404   1.95881   2.84737
O     1.05896  -1.26344   0.06944
