53

Au    0.00000   0.00000   0.00000
C    -2.37046   2.33371   0.36772
N    -2.41687  -0.63087  -1.58151
Cl    2.06299  -0.27470   0.87781
N    -2.66703   1.21502  -0.46247
C    -1.66757   3.40955  -0.17813
Cl    0.92134   0.73727  -1.92997
C    -1.34772   4.47382   0.65263
H    -0.79168   5.30492   0.24404
C    -1.72302   4.49277   1.98702
C    -2.46551   3.43052   2.48489
H    -2.78273   3.44558   3.51735
C    -2.80568   2.34400   1.69446
C    -1.28118   3.43729  -1.62418
H    -0.47270   2.73517  -1.82579
H    -0.94129   4.43098  -1.90241
H    -2.12171   3.16903  -2.26267
C    -1.34576   5.63199   2.88172
H    -2.21590   5.99949   3.42280
H    -0.91254   6.44993   2.31235
H    -0.61392   5.29820   3.61662
C    -3.64180   1.23681   2.25778
H    -3.57252   1.23189   3.34172
H    -3.31070   0.26768   1.89445
H    -4.68967   1.38150   1.98937
C    -1.84817   0.22656  -0.75875
C    -3.96455   1.05935  -1.11942
H    -4.17584   1.93511  -1.73843
H    -4.75152   0.96935  -0.36697
C    -3.77554  -0.22404  -1.93636
H    -4.48232  -1.01113  -1.66252
H    -3.84343  -0.05687  -3.01420
C    -1.80080  -1.78906  -2.13684
C    -1.18883  -1.70288  -3.38824
C    -0.55207  -2.83083  -3.88385
H    -0.06124  -2.77260  -4.84423
C    -0.52291  -4.02242  -3.17444
C    -1.18341  -4.08817  -1.95565
H    -1.18959  -5.01786  -1.40560
C    -1.83525  -2.98761  -1.42083
C    -1.23653  -0.44740  -4.20338
H    -0.42927  -0.44384  -4.92984
H    -1.12949   0.43521  -3.57894
H    -2.18046  -0.38819  -4.74827
C     0.21474  -5.21054  -3.70746
H     1.24553  -5.18854  -3.35316
H     0.23300  -5.20285  -4.79455
H    -0.23860  -6.13738  -3.36445
C    -2.57703  -3.09810  -0.12514
H    -3.62307  -2.82072  -0.25262
H    -2.14834  -2.44471   0.63321
H    -2.53743  -4.11872   0.24463
O    -0.67819  -0.54929   1.40030
