69

Au    0.00000   0.00000   0.00000
Cl   -1.47240  -0.81319   1.51772
Cl    1.47571   0.86925  -1.48292
C     0.29402   1.58435   1.18760
N     0.08901   2.86749   0.86547
C     0.38536   3.65856   1.94019
H     0.28178   4.72285   1.90623
C     0.78366   2.83538   2.94040
H     1.11106   3.04828   3.93639
N     0.71898   1.55838   2.45693
C    -0.33540   3.34983  -0.40647
C    -1.64271   3.09324  -0.82753
C    -2.02327   3.56329  -2.07829
H    -3.02527   3.37890  -2.43110
C    -1.13782   4.26071  -2.87525
H    -1.44959   4.60947  -3.84823
C     0.14300   4.51989  -2.42851
H     0.82116   5.07440  -3.05676
C     0.57388   4.07016  -1.18812
C    -2.65868   2.39469   0.04591
H    -2.16611   1.96273   0.92203
C    -3.34982   1.25087  -0.69843
H    -2.61463   0.60349  -1.17427
H    -4.02505   1.62391  -1.46390
H    -3.92210   0.65009   0.00385
C    -3.68744   3.41431   0.54589
H    -3.20078   4.20465   1.11501
H    -4.41291   2.92124   1.18802
H    -4.21541   3.86914  -0.28861
C     1.97481   4.39148  -0.72177
H     2.19158   3.83441   0.19442
C     3.02293   3.97900  -1.75642
H     2.89143   2.93256  -2.01653
H     4.01917   4.11482  -1.34147
H     2.94731   4.57771  -2.65947
C     2.08734   5.88941  -0.41664
H     1.35180   6.19978   0.32318
H     1.92447   6.47409  -1.31841
H     3.07906   6.11812  -0.03347
C     1.04497   0.38890   3.20268
C     2.17697  -0.34783   2.84320
C     2.46558  -1.49036   3.57892
H     3.33174  -2.07963   3.32413
C     1.66042  -1.88179   4.62972
H     1.89635  -2.77811   5.18332
C     0.55973  -1.12511   4.98019
H    -0.05375  -1.43539   5.81049
C     0.22616   0.02382   4.27621
C     3.12236   0.08951   1.74848
H     2.67726   0.90504   1.17113
C     4.41703   0.61660   2.37627
H     4.21004   1.45659   3.03734
H     5.09639   0.94925   1.59553
H     4.90825  -0.16139   2.95549
C     3.42018  -1.04906   0.77133
H     3.93156  -0.65584  -0.10355
H     2.49625  -1.51925   0.43808
H     4.04894  -1.81027   1.22547
C    -0.96894   0.84236   4.70594
H    -1.17344   1.61153   3.95551
C    -0.66686   1.53263   6.04091
H     0.22817   2.14858   5.97572
H    -0.50984   0.79419   6.82300
H    -1.50145   2.16697   6.33011
C    -2.22948  -0.01552   4.82459
H    -2.39952  -0.55036   3.89457
H    -3.08780   0.62213   5.02397
H    -2.14648  -0.73491   5.63410
O    -0.24556  -1.30717  -0.97648
