63

Pd    0.00000   0.00000   0.00000
P     1.12656   1.19129  -1.51817
P    -0.89709  -0.76729   1.87177
C     1.38239   2.80373  -0.67318
C     0.28872  -0.23298   3.17257
C     2.79447   0.46093  -1.50702
C     3.00783  -0.68736  -0.74883
C     4.26626  -1.25911  -0.69721
C     5.31233  -0.68942  -1.40429
C     5.10072   0.44665  -2.16984
C     3.84485   1.02123  -2.22567
C     0.88674   1.53430  -3.28284
C     0.74043   0.42581  -4.11525
C     0.56370   0.60112  -5.47393
C     0.52933   1.87936  -6.00903
C     0.66446   2.98237  -5.18248
C     0.83922   2.81562  -3.81991
C    -2.38795   0.21524   2.18613
C    -2.89246   0.93652   1.10556
C    -4.01579   1.72735   1.26405
C    -4.63529   1.80433   2.50087
C    -4.13131   1.09575   3.58001
C    -3.00955   0.30163   3.42749
C    -1.28241  -2.49814   2.23921
C    -2.49467  -2.95741   2.73608
C    -2.67958  -4.31521   2.93108
C    -1.67067  -5.21116   2.61994
C    -0.46888  -4.75650   2.09894
C    -0.27786  -3.40372   1.90389
C     0.84575   1.31124   1.27318
C     1.44112   2.48448   0.79968
C     2.06849   3.35909   1.67704
C     2.10315   3.08659   3.03216
C     1.51562   1.93182   3.51469
C     0.89764   1.04270   2.64524
H     2.28427   3.31775  -1.02145
H     0.51086   3.43968  -0.87902
H     1.05567  -1.01217   3.27646
H    -0.19192  -0.09746   4.14638
H     2.16834  -1.14368  -0.20195
H     4.43301  -2.15079  -0.11076
H     6.29516  -1.13540  -1.36461
H     5.91762   0.88242  -2.72647
H     3.67106   1.90077  -2.83148
H     0.74971  -0.56780  -3.68656
H     0.44739  -0.25938  -6.11522
H     0.39109   2.01763  -7.07124
H     0.63183   3.97872  -5.59963
H     0.93833   3.68261  -3.18234
H    -2.39645   0.86907   0.12662
H    -4.40991   2.28254   0.42589
H    -5.51322   2.42059   2.62655
H    -4.61510   1.16370   4.54361
H    -2.61404  -0.24807   4.27117
H    -3.29180  -2.26186   2.95617
H    -3.62126  -4.67585   3.31847
H    -1.82666  -6.26939   2.76788
H     0.30768  -5.45816   1.83346
H     0.64384  -3.03077   1.46471
H     2.52905   4.26029   1.29547
H     2.58842   3.77247   3.71074
H     1.54215   1.71309   4.57355
O    -0.64080  -1.14675  -0.99841
