63

Pt    0.00000   0.00000   0.00000
P     1.44860  -0.61861   1.60219
P    -1.84315   0.65395  -1.13748
C     0.35833  -1.21709   2.96180
C    -2.87901   1.42951   0.17014
C     2.25046   0.84201   2.30991
C     2.08032   2.05056   1.64388
C     2.65012   3.20640   2.14554
C     3.39070   3.15629   3.31499
C     3.56051   1.95339   3.98387
C     2.99275   0.79569   3.48573
C     2.74721  -1.87023   1.42421
C     4.10239  -1.56593   1.47547
C     5.03821  -2.55878   1.24587
C     4.63048  -3.84822   0.94848
C     3.27970  -4.14813   0.86517
C     2.34129  -3.16149   1.09418
C    -2.77456  -0.84591  -1.56194
C    -2.22691  -2.07789  -1.22401
C    -2.91099  -3.24421  -1.51199
C    -4.14299  -3.18150  -2.14212
C    -4.68847  -1.95489  -2.48850
C    -4.00706  -0.78679  -2.20249
C    -2.04200   1.65331  -2.63994
C    -2.83869   2.79014  -2.71480
C    -2.94244   3.47903  -3.91067
C    -2.25100   3.04466  -5.02926
C    -1.44810   1.91728  -4.95488
C    -1.34213   1.22253  -3.76565
C    -1.28119   0.10611   1.58623
C    -0.95371  -0.48896   2.81011
C    -1.83971  -0.43541   3.87752
C    -3.06431   0.19153   3.74032
C    -3.40363   0.77724   2.53434
C    -2.52041   0.74471   1.46447
H     0.20619  -2.29595   2.84068
H     0.80956  -1.04880   3.94424
H    -2.60697   2.49044   0.23435
H    -3.94784   1.35387  -0.05263
H     1.49741   2.07037   0.72373
H     2.52048   4.14402   1.62578
H     3.83932   4.05653   3.70851
H     4.13927   1.91991   4.89561
H     3.12915  -0.14566   4.00191
H     4.42261  -0.55547   1.68625
H     6.09096  -2.32132   1.28936
H     5.36549  -4.61781   0.76535
H     2.96151  -5.14833   0.61026
H     1.28417  -3.38046   1.00183
H    -1.25019  -2.10769  -0.73918
H    -2.48453  -4.20176  -1.25177
H    -4.67876  -4.09110  -2.37048
H    -5.64632  -1.91145  -2.98631
H    -4.42282   0.17241  -2.48148
H    -3.38032   3.14006  -1.84768
H    -3.56539   4.36020  -3.96803
H    -2.33495   3.58893  -5.95837
H    -0.90054   1.58210  -5.82273
H    -0.70516   0.35149  -3.69568
H    -1.57074  -0.89479   4.81893
H    -3.75292   0.22398   4.57159
H    -4.36040   1.26917   2.42389
O     1.05957  -0.15726  -1.25502
