27

Pd    0.00000   0.00000   0.00000
S    -2.35883  -0.98957   3.88857
S    -1.15879  -1.53730   1.26976
C     2.02831   4.18044  -1.33825
H     2.45489   5.14329  -1.57532
C    -0.84169   0.43418   6.94099
H    -1.62973   0.10790   7.59982
H     0.12890   0.56895   7.38551
C    -2.37704   0.48100   4.99840
H    -2.63865   1.32982   4.36947
H    -3.16673   0.27185   5.71807
N    -1.04060   0.83860   2.53578
N    -0.36248   1.19972   1.45260
C     2.14936   3.11831  -2.22775
H     2.66765   3.23361  -3.16522
N     0.94183   1.70918  -0.74857
C     1.58840   1.89637  -1.88948
H     1.65293   1.03526  -2.54523
C     0.81044   2.73232   0.13596
C     1.35586   3.99048  -0.14788
H     1.24209   4.79105   0.56563
C    -1.05884   0.66357   5.65876
C     0.09104   2.42180   1.33491
H    -0.07839   3.15612   2.11398
C    -1.44861  -0.40802   2.53780
H    -0.25976   0.97909   5.00286
O     0.34740  -0.97210  -1.28718
