58

Zr    0.00000   0.00000   0.00000
Si   -1.93643   0.47272  -2.69180
C     2.20483  -0.04430   0.32171
H     2.79883   0.40053  -0.49079
H     2.34255   0.53678   1.24986
C     2.60669  -1.43915   0.53858
C     2.31818  -2.09597   1.74683
H     1.81571  -1.54976   2.53830
C     2.66891  -3.41752   1.93754
H     2.43686  -3.90388   2.87474
C     3.32396  -4.12496   0.93953
H     3.59680  -5.15827   1.09287
C     3.63434  -3.48937  -0.25210
H     4.15593  -4.02868  -1.03044
C     3.28628  -2.16698  -0.44938
H     3.54006  -1.67902  -1.38370
C    -3.83168   0.70128  -2.82728
H    -4.11349   1.74687  -2.76132
H    -4.37458   0.15575  -2.06286
H    -4.17509   0.33240  -3.78764
C    -1.28860   0.43514  -4.48749
H    -1.36056   1.41365  -4.94957
H    -1.89549  -0.24622  -5.07435
H    -0.26082   0.10167  -4.56354
C    -1.40861  -1.06086  -1.72730
C    -1.96248  -1.45975  -0.47779
H    -2.96588  -1.23306  -0.13137
C    -1.07780  -2.36278   0.14678
C     0.05956  -2.48699  -0.68076
H     0.84652  -3.21581  -0.54454
C    -0.12333  -1.66178  -1.81431
H     0.51991  -1.64886  -2.68747
C    -1.33764  -3.15433   1.39482
H    -0.39813  -3.42910   1.87324
H    -1.87859  -4.07234   1.15355
H    -1.93682  -2.58336   2.10345
C    -1.03661   1.63974  -1.50028
C    -1.47650   1.93643  -0.16861
C    -0.39055   2.48818   0.54888
C     0.74500   2.49693  -0.30343
C     0.35790   1.94725  -1.55011
C    -2.86934   1.80251   0.38748
H    -2.87212   1.15994   1.27552
H    -3.55034   1.38996  -0.35107
H    -3.25265   2.78032   0.68724
C    -0.43670   3.09253   1.92258
H     0.40480   2.75273   2.52908
H    -1.35430   2.81783   2.43754
H    -0.38819   4.18201   1.85895
C     2.03792   3.18793   0.03048
H     2.86227   2.83609  -0.58671
H     2.30199   3.03739   1.07695
H     1.93355   4.26363  -0.13050
C     1.24318   1.82369  -2.76114
H     2.13844   2.43152  -2.64323
H     0.72098   2.17133  -3.65008
H     1.55572   0.78715  -2.93186
O    -0.36020  -0.07191   1.60860
