54

Fe    0.00000   0.00000   0.00000
Cl    1.15050   1.65995  -0.45455
N     0.65629  -0.45673   1.70560
C     0.42508   0.19419   2.85558
C     0.94640  -0.25701   4.05249
H     0.74008   0.28595   4.96081
C     1.73228  -1.41222   4.08347
H     2.13644  -1.76608   5.01915
C     1.97956  -2.08027   2.91073
H     2.58336  -2.97286   2.87874
C     1.43194  -1.58358   1.71919
C     1.59030  -2.11663   0.42248
H     2.15284  -3.01682   0.21510
N     0.98237  -1.42327  -0.51708
C    -0.42100   1.42553   2.77412
H     0.04724   2.15191   2.10848
H    -0.54967   1.87417   3.75436
H    -1.40120   1.17543   2.36501
C     1.14811  -1.80025  -1.90555
H     1.32729  -2.87981  -1.95655
C     2.36155  -1.04763  -2.48452
H     2.32476  -0.02151  -2.11373
H     2.26659  -1.00757  -3.56763
C     3.71636  -1.65532  -2.11482
H     4.49777  -0.97485  -2.45986
H     3.79269  -1.70859  -1.02618
C     3.97594  -3.04346  -2.70927
H     4.87444  -3.45976  -2.24784
H     3.15215  -3.70803  -2.44850
C     4.16137  -3.02518  -4.22845
H     5.17613  -2.69146  -4.45590
H     3.48312  -2.29781  -4.67213
C     3.93069  -4.38850  -4.88797
H     4.27870  -4.34190  -5.92255
H     4.53689  -5.13587  -4.37018
C     2.46904  -4.84723  -4.88197
H     2.08914  -4.80434  -3.86213
H     2.42740  -5.89400  -5.19176
C     1.57062  -4.02081  -5.80435
H     1.85755  -2.97125  -5.75358
H     1.73297  -4.34195  -6.83582
C     0.07796  -4.14753  -5.48328
H    -0.19270  -5.20606  -5.48779
H    -0.49222  -3.65828  -6.27650
C    -0.33609  -3.54459  -4.13702
H     0.26801  -3.99170  -3.34855
H    -1.37264  -3.82135  -3.93363
C    -0.21153  -2.01942  -4.08701
H     0.67521  -1.70271  -4.63418
H    -1.07159  -1.57753  -4.59382
C    -0.15266  -1.46925  -2.65985
H    -0.26511  -0.37631  -2.68637
H    -0.98996  -1.88239  -2.09195
O    -1.56537  -0.48777   0.18492
