45

Pt    0.00000   0.00000   0.00000
Se    0.80283   1.52597   1.73649
Se   -1.89994   1.35456  -0.73685
Cl   -0.67087  -1.56453  -1.55272
O    -0.99186   0.52988   3.44303
O    -3.16256   0.94574   1.61581
O    -0.28123   2.81013  -2.28409
O     1.51912   3.35088  -0.12061
C     1.31359   0.38009   3.25405
C     0.06696  -0.38455   3.63662
C    -2.27380   0.02186   3.71427
C    -3.29886   0.91505   3.01129
C    -3.39512  -0.27475   0.93750
C    -3.39237   0.09732  -0.52731
C    -1.91397   1.21838  -2.70107
C    -0.57586   1.74666  -3.16548
C     0.95060   3.44754  -2.51082
C     1.34610   4.18916  -1.23155
C     2.57678   2.41372  -0.20213
C     2.66333   1.81636   1.18349
H     2.11827  -0.28767   2.95060
H     1.63712   1.04286   4.05921
H     0.09762  -0.73264   4.67954
H    -0.05690  -1.25504   2.97444
H    -2.46820   0.02745   4.79773
H    -2.35864  -1.01349   3.35601
H    -3.14688   1.94788   3.33036
H    -4.31086   0.58295   3.28995
H    -4.34929  -0.72115   1.25455
H    -2.58127  -0.99200   1.12352
H    -3.22235  -0.76956  -1.16509
H    -4.31029   0.61685  -0.80776
H    -2.73448   1.84388  -3.05843
H    -2.05941   0.17932  -2.99224
H    -0.60800   2.09885  -4.20698
H     0.18846   0.95921  -3.07964
H     0.86400   4.16868  -3.33791
H     1.71970   2.70975  -2.77829
H     0.53690   4.86511  -0.94893
H     2.26448   4.76519  -1.42346
H     2.34146   1.61324  -0.92000
H     3.51230   2.90692  -0.50507
H     3.18873   0.86182   1.18127
H     3.11836   2.51301   1.88969
O     1.27753  -0.96982   0.38712
