52

Au    0.00000   0.00000   0.00000
P    -0.85209   0.75589   1.93044
P     1.38772   2.62425   1.47174
O     1.12430   2.92741   0.06346
C    -0.17170   2.38506   2.43587
C    -2.64181   1.03616   1.99025
C    -3.14498   2.01743   1.13595
C    -4.50674   2.23188   1.05522
C    -5.37431   1.45563   1.80877
C    -4.87910   0.45627   2.62982
C    -3.51586   0.23546   2.71748
C    -0.49746  -0.29186   3.36378
C     0.15589  -1.50123   3.15925
C     0.45722  -2.31603   4.23591
C     0.10437  -1.92602   5.51679
C    -0.55666  -0.72421   5.72379
C    -0.85992   0.09386   4.65260
C     2.26341   3.97754   2.32045
C     3.61572   4.09210   2.02412
C     4.35372   5.13655   2.54799
C     3.73816   6.07196   3.36502
C     2.38723   5.96579   3.65017
C     1.64514   4.92044   3.12694
C     2.40728   1.15919   1.77502
C     3.03463   0.57201   0.68261
C     3.80129  -0.56592   0.85822
C     3.94986  -1.10342   2.12714
C     3.35477  -0.49527   3.22210
C     2.58406   0.64015   3.05079
H    -0.85085   3.18206   2.11255
H    -0.01626   2.42816   3.51615
H    -2.46150   2.59941   0.52878
H    -4.89379   2.99675   0.39874
H    -6.43902   1.62211   1.74486
H    -5.55716  -0.16005   3.20137
H    -3.13107  -0.55397   3.34807
H     0.43154  -1.79300   2.15330
H     0.96801  -3.25288   4.07313
H     0.34035  -2.55992   6.35836
H    -0.83760  -0.42641   6.72338
H    -1.38814   1.02580   4.81048
H     4.07374   3.35497   1.37658
H     5.40524   5.22492   2.31883
H     4.31144   6.89000   3.77517
H     1.90780   6.70171   4.27914
H     0.58826   4.84826   3.34349
H     2.90696   1.01270  -0.29689
H     4.26405  -1.03654   0.00460
H     4.53848  -1.99807   2.26587
H     3.48583  -0.90937   4.21136
H     2.12321   1.12325   3.90216
O     0.70164  -0.72204  -1.30723
