37

C    -1.36987  -1.41373   2.34982
C    -2.08096  -1.45602   3.54320
H    -2.04110  -2.34699   4.15166
C    -2.83260  -0.36467   3.95694
C    -2.84878   0.74980   3.12126
H    -3.41991   1.62667   3.38182
C    -2.11636   0.72545   1.95341
H    -2.10033   1.57178   1.28082
C    -0.55936  -2.57141   1.88437
H    -0.87806  -2.87752   0.88913
H    -0.64548  -3.41214   2.56640
H     0.48629  -2.27027   1.81031
C    -3.57536  -0.37618   5.25131
H    -2.94428   0.04641   6.03358
H    -3.83919  -1.38993   5.54209
H    -4.47712   0.22775   5.18662
N    -1.39048  -0.32499   1.57596
Cl    2.00242  -0.52111   0.79963
Zn    0.00000   0.00000   0.00000
C    -1.41373  -1.36987  -2.34982
C    -1.45602  -2.08096  -3.54320
H    -2.34699  -2.04110  -4.15166
C    -0.36467  -2.83260  -3.95694
C     0.74980  -2.84878  -3.12126
H     1.62667  -3.41991  -3.38182
C     0.72545  -2.11636  -1.95340
H     1.57178  -2.10033  -1.28082
C    -2.57141  -0.55936  -1.88437
H    -2.87752  -0.87806  -0.88913
H    -3.41214  -0.64548  -2.56640
H    -2.27027   0.48629  -1.81031
C    -0.37618  -3.57536  -5.25131
H     0.04641  -2.94428  -6.03358
H    -1.38993  -3.83919  -5.54209
H     0.22775  -4.47712  -5.18662
N    -0.32499  -1.39048  -1.57596
O    -0.38761   1.48946  -0.59479
