46

Fe    0.00000   0.00000   0.00000
Cl   -2.01517   0.40958   0.22775
N    -0.20596  -1.92568   0.25594
N     0.36281  -0.50910  -1.63426
N     0.32330   1.76619  -0.77821
C    -0.02165  -2.63648  -0.83138
C     0.30847  -1.83741  -1.96935
C     0.59034  -2.25575  -3.26571
C     0.93599  -1.31731  -4.22683
C     0.99408   0.02643  -3.88779
C     0.70141   0.41811  -2.58551
C     0.65898   1.74103  -2.04610
C    -0.16270  -4.12147  -0.90813
C     0.99281   2.94878  -2.85911
C    -0.32918  -2.49886   1.51856
C     0.66838  -3.33330   2.03837
C     0.61725  -3.82360   3.32795
C    -0.45427  -3.49990   4.14072
C    -1.44376  -2.67545   3.63186
C    -1.39865  -2.16656   2.34892
C     0.01445   2.94407  -0.10388
C    -1.00107   3.79567  -0.55698
C    -1.39646   4.91067   0.15464
C    -0.76944   5.21751   1.34890
C     0.23552   4.37913   1.80162
C     0.63141   3.25280   1.10761
F     1.72376  -3.65747   1.26428
F    -2.49077  -2.36100   4.41554
F    -1.62805   3.51237  -1.71663
F     0.85239   4.67485   2.95981
H     0.54738  -3.30417  -3.51175
H     1.15862  -1.63120  -5.23404
H     1.25412   0.76839  -4.62497
H    -0.69975  -4.50163  -0.04198
H     0.82046  -4.59094  -0.94021
H    -0.70415  -4.39623  -1.81044
H     1.86848   2.75201  -3.47326
H     0.16072   3.20040  -3.51662
H     1.19506   3.80159  -2.21497
H     1.41866  -4.45126   3.68308
H    -0.52407  -3.86907   5.15060
H    -2.17804  -1.51514   1.98570
H    -2.19322   5.52521  -0.23251
H    -1.05338   6.08227   1.92561
H     1.40789   2.61101   1.49352
O     1.35665   0.02594   0.93879
