30

Au    0.00000   0.00000   0.00000
Cl   -0.91121   1.23756   1.60617
S    -0.01435  -1.85073   1.38021
N     0.83842  -1.25385  -1.41394
N     0.79773  -4.25263   0.49291
C     1.19412  -0.81513  -2.62040
H     1.00899   0.23446  -2.80748
C     1.75861  -1.64328  -3.56919
H     2.02830  -1.24039  -4.53158
C     1.96372  -2.98148  -3.25485
H     2.40349  -3.65666  -3.97296
C     1.59451  -3.43094  -2.00382
H     1.72372  -4.45318  -1.68632
C     1.02774  -2.54153  -1.08960
C     0.64094  -3.02644   0.23194
C     0.45233  -4.80784   1.76092
H    -0.53939  -4.44516   2.07531
H     1.16064  -4.44698   2.51728
C     0.46918  -6.30950   1.69171
C     1.07672  -7.06708   2.68300
H     1.55161  -6.57393   3.51942
C     1.07694  -8.44923   2.60658
H     1.55350  -9.02943   3.38318
C     0.47345  -9.08647   1.53616
H     0.47643 -10.16487   1.47649
C    -0.13342  -8.33625   0.54250
H    -0.60729  -8.82878  -0.29422
C    -0.13713  -6.95567   0.62170
H    -0.60825  -6.36406  -0.14983
O     0.02484   1.31883  -0.99124
