44

Pd    0.00000   0.00000   0.00000
C     1.10850   0.56679   1.52376
C     2.56824   1.75976   2.70107
H     3.40895   2.40108   2.86811
C     1.67361   1.23927   3.57331
H     1.60063   1.32471   4.63797
C    -0.39108  -0.17876   3.29514
H    -0.32150  -0.32237   4.37710
H    -0.43677  -1.16370   2.80651
C    -1.64467   0.63061   2.95618
H    -1.52132   1.66749   3.26978
H    -2.51860   0.21232   3.45095
C    -2.80433  -0.93019   0.90304
H    -2.85893  -1.01060  -0.18759
H    -2.12700  -1.70483   1.28111
C    -4.18448  -1.01635   1.52163
H    -4.15148  -0.98562   2.60971
H    -4.65234  -1.95281   1.22596
H    -4.80472  -0.19570   1.16902
C     2.90872   1.64044   0.24647
C     2.31199   2.42980  -0.73885
C     3.04338   2.71415  -1.88331
H     2.58886   3.31581  -2.65683
C     4.32835   2.22777  -2.06811
C     4.88406   1.42497  -1.08246
H     5.87135   1.01188  -1.22856
C     4.19039   1.11278   0.07454
C     4.76785   0.16438   1.08022
H     5.71531  -0.22940   0.72423
H     4.07881  -0.66817   1.21926
H     4.93354   0.64090   2.04557
C     5.07795   2.52862  -3.32872
H     4.73587   1.86543  -4.12321
H     6.14595   2.37554  -3.19452
H     4.90234   3.55344  -3.64925
C     0.90420   2.93948  -0.61514
H     0.20192   2.17264  -1.00770
H     0.77342   3.83521  -1.21788
H     0.64073   3.17138   0.41901
S    -2.01962   0.70392   1.15752
Cl   -1.24561  -0.37785  -1.86345
N     2.20423   1.33951   1.44757
N     0.78828   0.49926   2.83072
O     1.29469  -0.78832  -0.65179
