66

Re    0.00000   0.00000   0.00000
O    -0.58855   1.02168   1.16189
P     1.50037  -1.16329   1.52257
P     1.59206   1.61054  -0.86129
Cl   -1.44206  -1.79152   0.65229
O     2.19642  -2.42735   0.82397
O     0.75115  -1.13985  -1.21747
C     1.37425  -2.33129  -1.46027
H     2.39070  -2.14209  -1.85021
H     0.81069  -2.90978  -2.21032
C     1.47707  -3.16321  -0.17095
H     0.46914  -3.40142   0.18636
H     2.04728  -4.07803  -0.34676
C     0.77878  -1.77180   3.07408
C    -0.27391  -1.06865   3.64635
H    -0.66931  -0.19919   3.13643
C    -0.82348  -1.51265   4.83463
H    -1.64849  -0.97696   5.27924
C    -0.32645  -2.65328   5.44580
H    -0.76390  -3.00377   6.36908
C     0.72255  -3.35322   4.87208
H     1.10293  -4.24532   5.34808
C     1.28057  -2.91329   3.68540
H     2.09633  -3.45327   3.22510
O     3.02820   0.91075  -0.67252
C     4.23097   1.29738  -1.34800
H     5.00089   1.38541  -0.57468
H     4.10222   2.26509  -1.84339
C     4.62056   0.23486  -2.36204
H     5.57146   0.49243  -2.82087
H     3.86080   0.16235  -3.13724
H     4.71480  -0.72842  -1.86711
C     1.51918   2.08770  -2.61555
C     1.70336   3.40062  -3.02967
H     1.87683   4.17980  -2.30028
C     1.64904   3.70661  -4.37876
H     1.78817   4.72779  -4.70164
C     1.40561   2.71101  -5.30986
H     1.35425   2.95723  -6.36003
C     1.21301   1.40218  -4.89602
H     1.00651   0.62979  -5.62168
C     1.26824   1.08965  -3.55107
H     1.08572   0.07977  -3.21179
C     1.59543   3.18566   0.03254
C     0.35152   3.79286   0.19035
H    -0.52151   3.31429  -0.23430
C     0.24991   4.97580   0.89684
H    -0.71255   5.44782   1.02232
C     1.38363   5.55031   1.45309
H     1.30343   6.47311   2.00849
C     2.61770   4.93869   1.30827
H     3.49801   5.38357   1.74934
C     2.72793   3.75332   0.60127
H     3.68736   3.26657   0.50334
C     2.94418  -0.23768   2.08900
C     4.25004  -0.68594   1.96097
H     4.44340  -1.65055   1.51703
C     5.29146   0.11438   2.39941
H     6.31176  -0.22760   2.29913
C     5.02992   1.35089   2.96646
H     5.84709   1.97004   3.30723
C     3.72288   1.79869   3.09269
H     3.52027   2.76573   3.52839
C     2.68058   1.00877   2.64792
H     1.65388   1.34854   2.70789
O    -0.97882   0.59429  -1.18796
