59

Re    0.00000   0.00000   0.00000
O     1.27004  -1.00976   0.39153
P     1.40788   1.31789  -1.50017
C     0.57497   2.09812  -2.89622
C     0.41426   1.38065  -4.07633
H     0.80302   0.37589  -4.14987
C    -0.26357   1.95403  -5.13659
H    -0.39538   1.39682  -6.05191
C    -0.78083   3.23424  -5.02126
H    -1.31569   3.67627  -5.84905
C    -0.62165   3.94590  -3.84306
H    -1.03310   4.94045  -3.75176
C     0.05121   3.38013  -2.77576
H     0.16657   3.91963  -1.84814
C     2.81987   0.45169  -2.25573
C     3.71873   1.18911  -3.02101
H     3.56234   2.25206  -3.14938
C     4.79264   0.55446  -3.61620
H     5.49226   1.12222  -4.21185
C     4.96548  -0.81215  -3.45465
H     5.80196  -1.30603  -3.92650
C     4.06893  -1.54500  -2.69424
H     4.20435  -2.60896  -2.57369
C     2.99473  -0.91471  -2.08948
H     2.28578  -1.47336  -1.49118
P     0.37791   1.15729   2.10471
O     1.64649   2.15954   1.99836
C     2.82515   1.76491   1.31015
H     2.74978   0.72671   0.95760
H     3.66488   1.84547   2.00701
C     3.07186   2.68690   0.11807
H     3.11278   3.72651   0.45742
H     4.02977   2.41303  -0.34002
O     2.04803   2.66064  -0.85945
C     0.76236   0.11465   3.54737
C     0.92787  -1.25688   3.41800
H     0.80976  -1.71981   2.44653
C     1.23426  -2.01647   4.53433
H     1.35727  -3.08456   4.43932
C     1.37768  -1.40768   5.77012
H     1.61244  -2.00277   6.64031
C     1.21991  -0.03558   5.89644
H     1.33331   0.43581   6.86161
C     0.91093   0.72864   4.78715
H     0.78109   1.79926   4.86980
C    -0.88629   2.29444   2.68115
C    -0.79023   3.66587   2.48307
H     0.09133   4.07798   2.01643
C    -1.82939   4.48494   2.88644
H    -1.76095   5.55273   2.73773
C    -2.96228   3.93799   3.46739
H    -3.77416   4.58189   3.77213
C    -3.06279   2.56698   3.64777
H    -3.95253   2.14232   4.08778
C    -2.02746   1.74034   3.25414
H    -2.09772   0.66691   3.36377
Cl   -1.41369   1.67342  -0.40354
Cl   -0.55948  -0.99624  -2.04970
O    -1.18263  -0.78554   0.84073
