58

Au    0.00000   0.00000   0.00000
C     0.42402  -1.77840  -0.89706
N    -0.46155  -2.61361  -1.41107
C    -0.12500  -3.84385  -2.12984
H    -0.27470  -3.68150  -3.20943
H    -0.80822  -4.64150  -1.81759
C     1.29210  -4.25300  -1.86701
H     1.58172  -5.25343  -2.13832
C     2.14523  -3.39006  -1.33661
H     3.18257  -3.60980  -1.14113
N     1.72191  -2.12369  -0.94392
C    -1.88348  -2.33157  -1.27025
H    -1.94423  -1.29176  -0.92599
C    -2.65382  -2.44360  -2.58543
H    -2.66696  -3.47654  -2.93898
H    -2.17620  -1.82240  -3.34605
C    -4.09161  -1.98117  -2.35877
H    -4.09059  -0.93445  -2.04914
H    -4.65166  -2.05501  -3.29265
C    -4.76053  -2.82950  -1.28121
H    -5.78017  -2.47896  -1.11532
H    -4.81514  -3.86772  -1.61823
C    -3.97199  -2.75937   0.02322
H    -4.44355  -3.38965   0.77913
H    -3.97217  -1.73282   0.39433
C    -2.53111  -3.21146  -0.19712
H    -1.96270  -3.12402   0.73129
H    -2.52566  -4.25961  -0.50529
C     2.71177  -1.22016  -0.44414
C     3.26325  -0.28084  -1.31756
C     4.24692   0.56820  -0.82961
H     4.68373   1.30924  -1.48053
C     4.66960   0.48089   0.48240
H     5.43404   1.15031   0.84719
C     4.10964  -0.45253   1.33272
H     4.44025  -0.50223   2.35831
C     3.12065  -1.31884   0.88751
C     2.79563  -0.16276  -2.74858
H     2.02539  -0.91801  -2.93651
C     2.49646  -2.31191   1.83913
H     1.72540  -2.88201   1.31021
C     3.94840  -0.41756  -3.72245
H     4.38435  -1.39976  -3.54954
H     4.72894   0.32934  -3.60551
H     3.58645  -0.37594  -4.74734
C     2.16890   1.21298  -2.98501
H     1.37392   1.39295  -2.26292
H     1.74875   1.26722  -3.98701
H     2.90940   2.00103  -2.87930
C     3.54223  -3.30245   2.35724
H     3.07128  -4.03427   3.00967
H     4.31600  -2.78898   2.92168
H     4.01493  -3.83096   1.53146
C     1.81836  -1.57746   2.99798
H     1.10989  -0.84397   2.61643
H     2.54925  -1.05771   3.61123
H     1.28244  -2.28478   3.62727
O    -0.30353   1.44641   0.73367
