62

Ni    0.00000   0.00000   0.00000
Cl    0.06793   0.04217  -2.04406
C     0.29352  -1.38691   2.67188
N    -0.33564  -0.49961   1.90175
N    -1.73554   0.89533   0.21973
C     0.04650  -1.42812   4.04787
H     0.55965  -2.15277   4.65939
C    -0.86111  -0.55058   4.61016
H    -1.04192  -0.55849   5.67541
C    -1.56739   0.32509   3.79435
C    -1.27917   0.29550   2.42894
C    -2.60553   1.27233   4.31281
H    -2.34578   1.58558   5.32590
H    -3.56767   0.75084   4.36721
C    -2.73542   2.48379   3.39194
H    -1.79313   3.03711   3.38866
H    -3.51709   3.15032   3.75914
C    -3.06496   2.03261   1.97099
H    -4.02896   1.51110   1.96686
H    -3.15890   2.88402   1.29318
C    -2.01422   1.09172   1.46128
C    -2.42799   1.59338  -0.78976
C    -1.87382   2.76033  -1.32728
C    -2.58985   3.43032  -2.30879
H    -2.19426   4.34243  -2.72663
C    -3.79728   2.94055  -2.76544
H    -4.33915   3.47209  -3.53350
C    -4.30630   1.75836  -2.25858
H    -5.23496   1.37592  -2.64956
C    -3.63924   1.06705  -1.26046
C     1.19088  -2.33956   2.01107
C     2.35059  -2.79895   2.62898
H     2.62189  -2.43072   3.60732
C     3.18486  -3.68320   1.97092
H     4.09143  -4.02102   2.45080
C     2.86983  -4.12313   0.69623
H     3.52880  -4.80709   0.18282
C     1.71349  -3.67809   0.07562
H     1.46817  -4.01241  -0.92083
C     0.87799  -2.79180   0.72609
H    -0.04022  -2.45805   0.23832
C    -0.52956   3.27492  -0.86129
H    -0.02375   2.47996  -0.28236
C    -0.69741   4.49739   0.04390
H    -1.27546   4.25576   0.93422
H    -1.20912   5.29631  -0.48939
H     0.27727   4.86258   0.35947
C     0.38159   3.60210  -2.04462
H     1.38298   3.82357  -1.68282
H     0.02072   4.46277  -2.60210
H     0.43986   2.74548  -2.71063
C    -4.13171  -0.26046  -0.72590
H    -3.92233  -0.30508   0.35002
C    -3.34193  -1.38554  -1.40264
H    -2.27261  -1.25787  -1.22973
H    -3.51099  -1.36955  -2.47624
H    -3.64761  -2.35391  -1.01128
C    -5.63234  -0.47738  -0.90892
H    -6.19787   0.37088  -0.52854
H    -5.94135  -1.36826  -0.36557
H    -5.88076  -0.62461  -1.95631
O     1.64521   0.04675   0.11661
