69

Pd    0.00000   0.00000   0.00000
P    -1.53309   2.07751  -0.30013
N     0.85673   1.50932  -1.33959
N    -1.78136   0.64036  -0.89097
C    -0.85607  -1.22214   1.39712
H    -0.17582  -2.01882   1.70933
H    -1.76276  -1.67394   0.97335
H    -1.11933  -0.62556   2.28237
C    -2.77948  -0.27806  -1.17831
C    -2.44551  -1.26016  -2.13541
C    -3.36072  -2.25917  -2.42004
H    -3.10434  -3.02885  -3.13144
C    -4.59923  -2.29240  -1.80603
H    -5.29937  -3.08187  -2.03501
C    -4.93507  -1.30695  -0.90058
H    -5.90469  -1.32962  -0.42566
C    -4.04648  -0.29227  -0.57561
C    -1.37765   2.44625   1.50107
C    -0.16789   2.16948   2.14156
H     0.69099   1.78342   1.58487
C    -0.04397   2.37829   3.50422
H     0.89186   2.15168   3.99218
C    -1.11532   2.86413   4.23694
H    -1.01954   3.01435   5.30188
C    -2.30911   3.16084   3.60094
H    -3.14354   3.54965   4.16625
C    -2.44230   2.95608   2.23896
H    -3.37634   3.20097   1.75214
C    -2.62663   3.36539  -0.99670
C    -3.34035   3.01915  -2.13846
H    -3.25392   2.01414  -2.52976
C    -4.15583   3.94849  -2.75766
H    -4.71244   3.67390  -3.64157
C    -4.25825   5.22972  -2.24075
H    -4.89690   5.95615  -2.72059
C    -3.54127   5.58136  -1.10825
H    -3.61988   6.58157  -0.70775
C    -2.72438   4.65477  -0.48590
H    -2.16943   4.92993   0.40075
C     0.10918   2.56232  -0.99327
C     0.55317   3.86675  -1.15546
H    -0.07404   4.69567  -0.86265
C     1.81656   4.07338  -1.68977
H     2.19551   5.07635  -1.82131
C     2.58351   2.97476  -2.04430
H     3.57162   3.09726  -2.45833
C     2.06204   1.70319  -1.84934
H     2.62653   0.81181  -2.09378
C    -1.10408  -1.23928  -2.84015
H    -0.63527  -0.25668  -2.67870
C    -0.17275  -2.31062  -2.25382
H     0.76904  -2.32462  -2.80096
H    -0.63123  -3.29519  -2.32267
H     0.04147  -2.09624  -1.19122
C    -1.25557  -1.42800  -4.35155
H    -1.99489  -0.73764  -4.75375
H    -1.56293  -2.44148  -4.59624
H    -0.30399  -1.23910  -4.84459
C    -4.44299   0.74967   0.43523
H    -3.63693   1.49748   0.47190
C    -5.72492   1.47856   0.03361
H    -5.93572   2.28381   0.73563
H    -6.57353   0.79946   0.03251
H    -5.62573   1.90784  -0.96173
C    -4.57009   0.13674   1.82992
H    -4.82509   0.90227   2.56045
H    -3.62957  -0.32236   2.12504
H    -5.34467  -0.62636   1.84299
O     1.50225  -0.40640   0.54826
