49

Pd    0.00000   0.00000   0.00000
N     0.36328  -2.02458  -0.45187
N    -0.80569  -0.67974   1.78128
C    -0.39603  -0.04924   2.87873
H     0.05886   0.92551   2.73034
C    -0.56296  -0.59104   4.14251
H    -0.22251  -0.05095   5.01095
C    -1.16576  -1.83328   4.26054
H    -1.30619  -2.29153   5.22774
C    -1.58772  -2.48382   3.11280
H    -2.05075  -3.45698   3.15712
C    -1.39462  -1.86817   1.88382
C    -1.83195  -2.53671   0.58103
O    -2.55891  -3.71737   0.85664
H    -3.46682  -3.47220   1.07062
C    -0.57625  -2.94024  -0.19412
C    -0.44517  -4.25805  -0.61467
H    -1.22727  -4.96039  -0.38050
C     0.67694  -4.64175  -1.32536
H     0.79001  -5.66060  -1.66217
C     1.64203  -3.68647  -1.59500
H     2.53518  -3.92821  -2.14763
C     1.43924  -2.39612  -1.14188
H     2.17482  -1.63072  -1.34545
C    -2.69813  -1.57752  -0.25356
H    -2.92303  -2.03741  -1.21413
H    -2.18903  -0.61750  -0.41948
H    -3.63005  -1.37817   0.27620
C     1.04408   0.79494  -1.46825
C     0.59627   0.99131  -2.77888
C     1.33486   1.66608  -3.73427
H     0.95348   1.80187  -4.73563
C     2.57931   2.17519  -3.38042
C     3.08014   1.99948  -2.09696
H     4.04867   2.39465  -1.82858
C     2.31187   1.31608  -1.16870
C    -0.74216   0.39141  -3.08615
F    -1.72160   0.87047  -2.29873
F    -0.73767  -0.94948  -2.82729
F    -1.14852   0.52632  -4.34826
C     3.38322   2.89015  -4.42888
F     3.80623   2.04658  -5.39375
F     4.48015   3.48254  -3.94364
F     2.67611   3.84165  -5.05796
C     2.81697   1.07731   0.22872
F     2.74530  -0.25179   0.55887
F     2.08544   1.67562   1.18287
F     4.08660   1.43643   0.42598
O    -0.53846   1.53542   0.27392
