45

Hg    0.00000   0.00000   0.00000
Br   -1.46445   1.72655  -1.11497
S    -1.19834  -2.57908  -0.33803
S     1.62024  -0.53185  -2.39403
N    -0.53579  -1.36146  -5.78717
N     0.56807  -3.83715  -3.50147
N     0.33116  -3.81353  -2.18563
H     0.86567  -4.38008  -1.54458
N    -0.98016  -2.33828  -3.04533
N     1.61779   4.99140  -3.24657
N     0.16770   2.08507  -4.78443
N     0.37801   0.83686  -4.34821
H    -0.02354   0.01679  -4.83623
N     1.42598   2.13250  -2.97840
C    -0.55904  -1.05009  -7.07348
H    -0.79903  -0.01866  -7.29406
C    -0.29156  -1.96649  -8.07757
H    -0.32967  -1.66929  -9.11305
C     0.04004  -3.26452  -7.71415
H     0.27207  -4.00355  -8.46597
C     0.06826  -3.59952  -6.37196
H     0.32133  -4.59001  -6.03272
C    -0.24004  -2.61299  -5.43605
C    -0.21608  -2.93243  -4.01587
C    -0.59655  -2.88993  -1.86147
C    -2.03591  -1.37650  -3.18801
H    -2.47509  -1.46146  -4.17892
H    -1.66542  -0.35934  -3.04939
H    -2.78733  -1.57521  -2.42197
C     1.61179   6.30853  -3.30883
H     2.30343   6.80492  -2.64125
C     0.78700   7.02982  -4.16017
H     0.81688   8.10778  -4.16949
C    -0.07350   6.32722  -4.99143
H    -0.73310   6.85019  -5.66813
C    -0.07792   4.94563  -4.93621
H    -0.72823   4.34586  -5.55049
C     0.78865   4.31803  -4.03892
C     0.79249   2.86815  -3.94759
C     1.13357   0.83201  -3.23627
C     2.19223   2.60876  -1.86328
H     1.56682   3.23077  -1.22184
H     3.02890   3.20846  -2.21659
H     2.56295   1.74811  -1.30295
O     1.09323   0.20717   1.21837
