51

S    -0.24210   1.59340   1.83098
P    -0.67369  -2.78323   0.84928
N    -0.12794  -1.42389   1.53817
C    -0.52593  -1.00228   2.79151
C    -0.53854   0.36536   3.10257
C    -0.86219   0.81138   4.37161
H    -0.87324   1.87434   4.56259
C    -1.18366  -0.08977   5.36920
H    -1.43273   0.25978   6.35864
C    -1.20789  -1.44435   5.07277
H    -1.48303  -2.15949   5.83397
C    -0.89040  -1.89140   3.80827
H    -0.92119  -2.94873   3.57918
C    -0.12911  -4.34304   1.60361
C     1.05786  -4.32787   2.32823
H     1.56607  -3.38539   2.48387
C     1.56756  -5.50500   2.84313
H     2.48574  -5.49346   3.41114
C     0.89940  -6.70006   2.62532
H     1.29542  -7.61986   3.02894
C    -0.27166  -6.71994   1.88469
H    -0.78356  -7.65436   1.70748
C    -0.78666  -5.54475   1.36626
H    -1.69432  -5.55645   0.77882
C    -2.48626  -2.71103   0.79531
C    -3.01076  -1.74336  -0.05775
H    -2.33777  -1.16266  -0.68826
C    -4.37390  -1.52074  -0.08908
H    -4.78176  -0.77391  -0.75344
C    -5.21279  -2.25557   0.73538
H    -6.27847  -2.08354   0.71097
C    -4.68759  -3.20220   1.59956
H    -5.34206  -3.76101   2.25259
C    -3.32277  -3.43010   1.63916
H    -2.91442  -4.15891   2.32557
C     0.01150  -2.75901  -0.80710
C     0.35045  -1.48114  -1.29362
C     0.88398  -1.42671  -2.58206
H     1.15456  -0.46980  -3.00389
C     1.05777  -2.57626  -3.33377
H     1.47138  -2.50304  -4.32939
C     0.70636  -3.82138  -2.83064
H     0.84410  -4.71000  -3.42905
C     0.17833  -3.91754  -1.55859
H    -0.09535  -4.87983  -1.14608
C     1.57339   1.75706   1.96561
H     1.81576   2.16550   2.94342
H     1.87668   2.44389   1.17976
H     2.05224   0.78915   1.82307
Pt    0.00000   0.00000   0.00000
O     0.14449   1.19125  -1.13250
