58

Pt    0.00000   0.00000   0.00000
S     1.42041   1.92949   0.60406
P    -1.76181   0.62199  -2.31659
N    -0.98113   1.46161  -1.17310
C    -0.28913   2.61997  -1.46979
C     0.81619   3.00060  -0.69249
C     1.50404   4.17530  -0.94095
H     2.35308   4.42221  -0.32144
C     1.11320   5.00781  -1.97347
H     1.65162   5.92177  -2.16810
C     0.02930   4.64679  -2.75894
H    -0.28149   5.28057  -3.57641
C    -0.65690   3.47639  -2.51219
H    -1.49901   3.19695  -3.13177
C     0.11538   2.07541   1.82814
C    -0.84274   3.07777   1.76885
H    -0.84457   3.79054   0.95619
C    -1.80202   3.16026   2.76371
H    -2.55143   3.93678   2.71066
C    -1.79972   2.26566   3.81946
H    -2.55221   2.33768   4.59061
C    -0.82500   1.28266   3.88683
H    -0.81146   0.58558   4.71082
C     0.13707   1.18391   2.89919
H     0.90643   0.42672   2.95466
C    -2.27109  -0.89419  -1.50969
C    -1.46338  -1.28530  -0.42508
C    -1.82195  -2.46217   0.23231
H    -1.23000  -2.80922   1.06661
C    -2.91808  -3.20158  -0.17903
H    -3.17377  -4.11002   0.34728
C    -3.69352  -2.79601  -1.25636
H    -4.54601  -3.38266  -1.56589
C    -3.37062  -1.63484  -1.93002
H    -3.96801  -1.29745  -2.76672
C    -0.61023   0.26977  -3.67588
C     0.41519  -0.62274  -3.37354
H     0.42551  -1.12209  -2.40587
C     1.41649  -0.85774  -4.29648
H     2.21085  -1.55000  -4.06234
C     1.40128  -0.19815  -5.51626
H     2.18533  -0.37823  -6.23650
C     0.38872   0.70035  -5.81026
H     0.38558   1.22209  -6.75602
C    -0.61780   0.94245  -4.89133
H    -1.40099   1.65149  -5.12100
C    -3.27314   1.39277  -2.96152
C    -3.85380   0.99340  -4.15981
H    -3.36581   0.24931  -4.77442
C    -5.05589   1.55310  -4.55572
H    -5.50777   1.24975  -5.48869
C    -5.68102   2.49722  -3.75654
H    -6.61698   2.93303  -4.07248
C    -5.11263   2.87939  -2.55112
H    -5.60716   3.60761  -1.92577
C    -3.91224   2.32377  -2.14981
H    -3.45293   2.60265  -1.21040
O     0.88236  -1.12771   0.81989
