48

Fe    0.00000   0.00000   0.00000
P     0.82854   1.85523   0.77352
P    -0.50536  -1.74879  -1.18830
N    -1.68339   0.58736   0.06953
N    -0.46823  -0.78281   1.75591
C     0.01467   0.92686  -1.71011
H     0.83935   1.00484  -2.41573
C    -1.13204   1.51637  -2.01297
H    -1.33878   2.08317  -2.91429
C    -2.23263   1.37634  -1.00685
H    -2.57438   2.35102  -0.62970
H    -3.11819   0.88032  -1.42974
C    -2.41283   0.29432   1.10880
H    -3.44145   0.61868   1.21660
C    -1.75510  -0.48509   2.09086
C    -2.33243  -0.92241   3.28930
H    -3.35647  -0.65654   3.50384
C    -1.58400  -1.67756   4.16136
H    -2.00353  -2.02812   5.09224
C    -0.26785  -1.98043   3.81384
H     0.35761  -2.56954   4.46474
C     0.23519  -1.51541   2.61683
H     1.25233  -1.74214   2.33516
C     2.07778   2.79582  -0.17108
H     1.65985   3.05743  -1.14204
H     2.96927   2.18929  -0.31853
H     2.33720   3.70400   0.37470
C     1.63758   1.75980   2.42002
H     2.49418   1.08949   2.36746
H     0.92563   1.36596   3.14637
H     1.97046   2.74888   2.73591
C    -0.36111   3.21389   1.11038
H     0.14423   4.03941   1.61260
H    -1.17175   2.84957   1.74163
H    -0.77034   3.56659   0.16534
C    -2.26757  -1.93533  -1.67277
H    -2.52703  -1.14328  -2.37298
H    -2.90443  -1.86080  -0.79114
H    -2.42513  -2.90238  -2.15139
C     0.27277  -2.03602  -2.81597
H    -0.12513  -2.95353  -3.25169
H     1.35196  -2.12127  -2.70404
H     0.04711  -1.19212  -3.46627
C    -0.24840  -3.38170  -0.38689
H    -0.80789  -3.41355   0.54874
H     0.80963  -3.51932  -0.16940
H    -0.59056  -4.18256  -1.04290
O     1.55952  -0.53266  -0.08167
