28

Au    0.00000   0.00000   0.00000
Cl   -1.44429   0.78822  -1.55918
N    -1.24048   0.69308   1.38086
H    -1.97522   1.30196   1.04480
N     0.73534  -0.99048   2.64784
N     1.18103  -0.68523   1.51273
C    -1.45253   0.11632   2.54807
C    -2.62136   0.38203   3.30661
H    -3.35217   1.05167   2.87724
C    -2.83569  -0.20216   4.51962
H    -3.74758   0.00678   5.05869
C    -1.88618  -1.07748   5.08296
H    -2.08038  -1.52985   6.04222
C    -0.72909  -1.33243   4.41411
H     0.02799  -1.98493   4.81915
C    -0.46938  -0.75571   3.14209
C     2.54894  -0.90192   1.30136
C     3.17423  -2.00624   1.87872
H     2.58481  -2.69280   2.46680
C     4.52099  -2.21954   1.66305
H     4.99909  -3.08558   2.09512
C     5.25293  -1.33328   0.88862
H     6.30389  -1.50774   0.71563
C     4.63449  -0.22333   0.33480
H     5.20317   0.47375  -0.26089
C     3.28594  -0.00348   0.53551
H     2.80176   0.86446   0.11446
O     0.97007  -0.67243  -1.15295
