66

Pd    0.00000   0.00000   0.00000
S    -0.41098  -2.18356   2.35834
O    -0.31268  -0.85095   2.93259
O    -1.60309  -2.94325   2.64988
N     1.30354   0.49403   1.39957
N     1.92268  -0.93903  -0.81060
N    -0.06986  -2.05804   0.80447
C     1.19935   1.46005   2.30478
H     0.33745   2.10780   2.22140
C     2.13065   1.64747   3.30878
H     1.99903   2.44125   4.02609
C     3.22462   0.79585   3.37479
H     3.96899   0.90826   4.14814
C     3.34585  -0.19673   2.42096
H     4.19537  -0.86087   2.42256
C     2.36570  -0.32801   1.43872
C     2.48493  -1.31270   0.35228
C     3.18434  -2.51304   0.47228
H     3.60456  -2.81129   1.41960
C     3.26738  -3.34478  -0.63111
H     3.78033  -4.29242  -0.55726
C     2.68331  -2.94928  -1.82628
H     2.73127  -3.57449  -2.70332
C     2.00892  -1.73733  -1.86188
H     1.52107  -1.38244  -2.76169
C    -1.75572   0.72844   0.81735
H    -2.48831  -0.07004   0.65585
H    -1.57112   0.83181   1.89088
C    -2.21122   2.04846   0.17618
C    -0.99807   2.70199  -0.45363
C    -0.95456   4.02922  -0.86022
H    -1.80440   4.67496  -0.69497
C     0.17385   4.53363  -1.48363
H     0.20017   5.56757  -1.79586
C     1.26309   3.71302  -1.71487
H     2.14051   4.10354  -2.21063
C     1.22874   2.38466  -1.31149
H     2.08743   1.74818  -1.50325
C     0.10419   1.87524  -0.68162
C    -3.22896   1.76854  -0.93893
H    -3.48829   2.68723  -1.46067
H    -4.13446   1.33429  -0.52156
H    -2.79977   1.07063  -1.65246
C    -2.85434   2.93422   1.25275
H    -3.31065   3.81436   0.80663
H    -2.11339   3.25935   1.98025
H    -3.62986   2.37688   1.77260
C    -0.45527  -3.20189   0.01329
H     0.38346  -3.90840  -0.08802
H    -0.75793  -2.87767  -0.98372
H    -1.29744  -3.71510   0.48751
C     0.97807  -3.10568   3.05420
C     1.84580  -2.47350   3.92443
H     1.61245  -1.46720   4.23473
C     2.96608  -3.13778   4.39148
H     3.64041  -2.64303   5.07693
C     3.23144  -4.44459   3.99421
C     2.33563  -5.07656   3.13911
H     2.51731  -6.09938   2.84035
C     1.21161  -4.41405   2.67465
H     0.50349  -4.91280   2.03321
C     4.44036  -5.16509   4.51145
H     4.69967  -6.00358   3.86976
H     4.24057  -5.55302   5.51044
H     5.29411  -4.49377   4.58060
O    -0.90954  -0.46776  -1.29478
