32

Pt    0.00000   0.00000   0.00000
Cl    1.83368   0.57216  -1.16143
N    -1.20199   0.13164  -1.58218
N    -1.78385  -0.54118   1.04761
C    -1.69260   1.93628  -4.65514
H    -1.08501   2.75326  -4.29583
C    -2.43173   2.07504  -5.81220
H    -2.40019   3.00363  -6.36196
C    -3.20181   1.01952  -6.27714
H    -3.77246   1.12457  -7.18733
C    -3.22068  -0.17670  -5.58004
H    -3.79778  -1.01005  -5.95240
C    -2.50008  -0.31465  -4.40765
H    -2.49023  -1.26817  -3.90222
C    -1.73486   0.74695  -3.91953
C    -0.92499   0.67377  -2.71044
H     0.04569   1.16073  -2.76179
C    -2.48987  -0.48814  -1.32241
H    -3.26469  -0.09802  -1.99306
H    -2.40349  -1.56803  -1.48518
C    -2.87970  -0.20524   0.13093
H    -3.08423   0.86520   0.22397
H    -3.79352  -0.75688   0.39306
C    -1.94916   0.16822   2.31571
H    -1.95213   1.24393   2.14202
H    -1.10722  -0.06880   2.96445
H    -2.88514  -0.12231   2.80689
C    -1.72732  -1.97878   1.30951
H    -1.58646  -2.53315   0.38215
H    -2.64826  -2.32377   1.79593
H    -0.87938  -2.18227   1.96255
O     0.91527  -0.20870   1.35692
