52

C     2.57403  -0.62739  -0.83945
C     4.00156  -0.68759  -0.96183
C     4.88130  -0.24447   0.03367
H     4.47393   0.15374   0.94952
C     6.24212  -0.31516  -0.15427
H     6.90831   0.03012   0.62245
C     6.76731  -0.82903  -1.33850
H     7.83717  -0.88139  -1.47519
C     5.92353  -1.26559  -2.33115
H     6.31485  -1.66144  -3.25515
C     4.53316  -1.20399  -2.16632
C     3.65339  -1.65252  -3.21118
C     2.28609  -1.60641  -3.08954
C     1.34425  -2.08022  -4.16737
H     1.71251  -1.79985  -5.15976
H     0.39189  -1.57017  -4.01618
C     1.11740  -3.59226  -4.09448
H     2.05228  -4.13979  -4.20260
H     0.43529  -3.91151  -4.87914
H     0.68289  -3.85037  -3.13202
C     1.72271  -1.10869  -1.88069
C    -1.42672   1.27714   1.48029
H    -1.46032   2.34288   1.68167
C    -0.65396   0.44523   2.30076
C     0.15464   0.98010   3.43865
H    -0.10987   2.01113   3.65796
H     1.21301   0.94142   3.17211
H     0.00912   0.37084   4.32898
C    -0.62023  -0.93551   1.98364
H    -0.03546  -1.60584   2.60565
C    -1.42391  -1.45924   0.94930
H    -1.45928  -2.53369   0.79373
C    -2.35018  -0.62952   0.25203
C    -3.29022  -1.22336  -0.76887
H    -3.15267  -2.31066  -0.76601
C    -4.74955  -0.92237  -0.41925
H    -4.94659   0.14612  -0.45319
H    -4.98885  -1.28654   0.57798
H    -5.40733  -1.41258  -1.13264
C    -2.93236  -0.69932  -2.16300
H    -3.14920   0.36293  -2.24503
H    -3.50206  -1.22862  -2.92302
H    -1.86949  -0.84620  -2.35260
C    -2.31147   0.73725   0.50498
H    -2.98177   1.41068  -0.01444
N     1.85732  -0.17682   0.20698
O     0.46286  -1.12435  -1.65951
O     2.32329   0.15970   1.30414
O     4.25429  -2.13024  -4.32316
Ru    0.00000   0.00000   0.00000
H     3.58361  -2.38671  -4.96973
O     0.27050   1.29290  -0.98881
