57

Pd    0.00000   0.00000   0.00000
O    -1.25298  -0.48705  -1.49449
N     1.32662   0.69216   1.31024
N     2.63028  -0.01312  -1.25732
N     1.12222   0.30401  -2.77366
C     0.85817   1.48418   2.28007
H    -0.21824   1.47266   2.42217
C     1.68524   2.24444   3.08722
H     1.25815   2.86079   3.86150
C     3.05513   2.19512   2.88405
H     3.73156   2.77664   3.49053
C     3.54042   1.36891   1.88042
H     4.60149   1.29598   1.69765
C     2.65584   0.62573   1.11617
C     3.16950  -0.31977   0.04930
H     4.26005  -0.27963   0.00294
H     2.86079  -1.34400   0.32417
C     3.26617  -0.08438  -2.46681
H     4.31589  -0.27235  -2.56216
C     2.31954   0.11897  -3.41804
H     2.41408   0.11792  -4.48347
C     1.31703   0.23605  -1.44762
C    -0.14431   0.53738  -3.35317
C    -0.22206   1.13145  -4.60677
H     0.69603   1.38136  -5.11250
C    -1.44606   1.41735  -5.17526
C    -2.58477   1.16543  -4.40441
H    -3.53853   1.44789  -4.81566
C    -2.55179   0.60448  -3.14653
C    -1.29844   0.19817  -2.60223
C    -1.59788   2.02662  -6.56024
C    -0.25520   2.19543  -7.27751
H     0.25184   1.23898  -7.38421
H     0.39194   2.88687  -6.74247
H    -0.42392   2.59940  -8.27379
C    -2.25271   3.40953  -6.43765
H    -1.64338   4.05997  -5.81346
H    -3.24040   3.33883  -5.99125
H    -2.35379   3.86699  -7.41989
C    -2.48076   1.10889  -7.41746
H    -2.58745   1.51817  -8.42016
H    -3.47202   0.99973  -6.98752
H    -2.03248   0.12042  -7.49265
C    -3.79688   0.47886  -2.27734
C    -4.04791  -0.98850  -1.90896
H    -3.21747  -1.37976  -1.33007
H    -4.16185  -1.58921  -2.80969
H    -4.95544  -1.07305  -1.31502
C    -5.05640   1.01308  -2.96849
H    -5.28383   0.44400  -3.86751
H    -4.95291   2.06552  -3.22483
H    -5.90141   0.91651  -2.28981
C    -3.57116   1.31300  -1.00470
H    -4.43739   1.23709  -0.35166
H    -3.41850   2.35997  -1.26480
H    -2.69888   0.96167  -0.44568
O    -1.05971  -0.44751   1.18290
