33

C     0.16609  -4.72917  -0.90554
H     0.68500  -5.57454  -0.47675
C     0.33487  -3.44425  -0.40553
H     0.99871  -3.24750   0.42455
C    -1.12267  -2.65473  -1.95745
H    -1.66803  -1.83349  -2.40343
C    -1.27670  -3.94569  -2.46330
C    -2.18119  -4.18663  -3.63948
C    -2.94909  -6.14199  -4.96287
C    -3.74073  -5.42908  -5.83636
H    -3.80936  -4.35847  -5.74222
C    -4.45873  -6.07571  -6.84326
H    -5.07163  -5.49541  -7.51441
C    -4.38550  -7.43603  -6.97638
C    -3.58810  -8.21861  -6.10622
C    -3.50356  -9.62047  -6.22922
H    -4.06624 -10.10306  -7.01292
C    -2.72913 -10.35905  -5.38008
H    -2.67282 -11.43167  -5.48517
C    -2.00325  -9.72119  -4.36759
H    -1.39156 -10.30822  -3.69888
C    -2.06429  -8.36198  -4.22183
H    -1.48771  -7.91088  -3.42666
C    -2.85269  -7.56298  -5.07772
N    -0.63217  -4.97908  -1.92715
N    -0.31607  -2.40626  -0.93162
N    -2.23225  -5.50193  -3.95546
H    -1.65757  -6.08660  -3.35790
O    -2.75729  -3.27051  -4.18774
Hg    0.00000   0.00000   0.00000
Cl   -5.29047  -8.19969  -8.23495
I    -2.12089   1.12265  -1.00193
O     1.39593  -0.27703   0.83494
