68

Hg    0.00000   0.00000   0.00000
Se    1.69550  -1.85583  -0.30234
P    -2.74035  -0.27448  -0.71896
C    -3.23029   1.30406  -1.56364
H    -2.98412   2.09094  -0.83788
C    -3.80578  -0.37096   0.80390
H    -4.84104  -0.57821   0.50974
C    -3.32673  -1.62009  -1.87896
H    -3.36092  -1.14108  -2.86666
C     0.56698  -3.40217  -0.05954
C    -4.70378   1.41590  -1.94805
H    -4.95324   0.65966  -2.69579
H    -5.34308   1.25789  -1.07674
C    -0.23512  -3.53077   1.06579
H    -0.21622  -2.76597   1.83343
C    -4.69831  -2.22426  -1.58536
H    -5.46688  -1.44862  -1.57183
H    -4.68945  -2.71737  -0.61195
C    -4.53838   0.80141   2.89933
H    -4.47423   1.73708   3.45694
H    -5.59141   0.62061   2.66752
C    -4.96721   2.80256  -2.53384
H    -4.76083   3.55978  -1.77449
H    -6.01852   2.88804  -2.81716
C    -3.75041   0.93475   1.59808
H    -2.70804   1.17799   1.82642
H    -4.16465   1.75838   1.01540
C    -0.21670  -5.52324  -0.85552
H    -0.19965  -6.31026  -1.59651
C    -2.60526   2.90842  -3.37446
H    -2.33744   3.66576  -2.63538
H    -1.97942   3.06253  -4.25529
C    -4.07786   3.05164  -3.74852
H    -4.32552   2.33196  -4.53304
H    -4.26372   4.05179  -4.14334
C    -3.26946  -1.51750   1.66403
H    -2.22035  -1.30294   1.90653
H    -3.28974  -2.45879   1.10921
C    -4.06121  -1.65196   2.95979
H    -5.10143  -1.89384   2.72719
H    -3.65301  -2.46958   3.55754
C    -5.04189  -3.26217  -2.65378
H    -6.02128  -3.69434  -2.43798
H    -5.10034  -2.77513  -3.63028
C    -4.00401  -0.34747   3.74733
H    -2.96942  -0.13849   4.02811
H    -4.58855  -0.43818   4.66468
C    -2.34091   1.52489  -2.78918
H    -1.28507   1.43816  -2.50206
H    -2.54146   0.76611  -3.55021
C    -1.06061  -5.64417   0.24996
C    -2.26434  -2.71983  -1.92716
H    -1.28690  -2.27629  -2.14728
H    -2.19417  -3.20697  -0.95203
C    -1.04874  -4.63476   1.21456
H    -1.68097  -4.72583   2.08716
C    -3.98413  -4.36076  -2.69856
H    -3.95462  -4.88070  -1.73830
H    -4.24089  -5.09081  -3.46831
C    -2.61189  -3.76045  -2.98466
H    -2.61619  -3.29136  -3.97167
H    -1.85233  -4.54316  -2.98611
C     0.58600  -4.41279  -1.01101
H     1.23106  -4.32212  -1.87288
N    -1.94529  -6.70025   0.34920
H    -2.28633  -6.90727   1.27463
H    -1.71966  -7.51638  -0.19714
O    -0.10663   1.62222   0.28200
