41

Pd    0.00000   0.00000   0.00000
Cl   -1.69686   1.32147  -0.67801
P     1.65229  -1.46941   0.40461
N    -1.36146  -1.70004   0.24466
N    -0.67135  -2.87851   0.57659
C    -2.22028  -1.27995   1.35637
H    -2.99462  -2.02517   1.57183
H    -2.69372  -0.33363   1.08111
H    -1.60448  -1.13059   2.25018
C    -2.13718  -1.89814  -0.98115
H    -1.47396  -2.26888  -1.76560
H    -2.54634  -0.93117  -1.28367
H    -2.95475  -2.61109  -0.83092
C     3.17230  -1.72246   1.34030
C     4.21560  -1.82649   0.48874
C     3.85871  -1.76390  -0.93518
C     2.53380  -1.65234  -1.16551
C     0.69341  -2.96598   0.66909
C     1.01156  -4.26409   1.00592
H     2.00158  -4.64465   1.15768
C    -0.19470  -4.97299   1.10695
H    -0.30648  -6.01048   1.35255
C    -1.21304  -4.09527   0.83679
H    -2.27067  -4.26828   0.81544
C     3.18227  -1.74928   2.83391
H     3.71760  -2.62161   3.20778
H     2.15998  -1.78295   3.20966
H     3.66278  -0.85601   3.23384
C     5.63802  -1.99383   0.90597
H     5.72225  -2.05645   1.98660
H     6.22807  -1.14532   0.56196
H     6.06221  -2.89560   0.46625
C     4.92367  -1.83071  -1.97786
H     4.50160  -1.75408  -2.97507
H     5.46621  -2.77258  -1.90462
H     5.63729  -1.02033  -1.83712
C     1.79075  -1.47355  -2.45221
H     2.43076  -1.06636  -3.23170
H     0.95368  -0.76741  -2.29223
H     1.38260  -2.42394  -2.80220
O     1.06599   1.25283  -0.12878
