51

Pt    0.00000   0.00000   0.00000
I     0.87022  -1.90260  -1.57791
N    -0.80811   2.82666   0.75030
N    -0.67076   2.85969   2.93535
N    -0.39505   1.63104   2.46540
N     1.00054   2.29428  -1.41484
N     3.17474   2.42751  -1.29155
N     2.73676   1.32952  -0.64369
C    -0.47649   1.56262   1.13802
C    -0.92428   3.56965   1.89021
H    -1.18308   4.60802   1.90731
C     1.41635   1.21262  -0.69941
C     2.11278   3.00059  -1.75298
H     2.11933   3.90406  -2.32561
C    -1.07720   3.34139  -0.57940
H    -0.68504   4.36876  -0.60070
C    -0.40068   2.52620  -1.69451
H    -0.87204   1.52351  -1.72588
C    -0.63592   3.21095  -3.03620
H    -0.23659   4.22836  -3.01566
H    -0.11985   2.65495  -3.82103
C    -2.13607   3.25338  -3.31915
H    -2.51872   2.23399  -3.39350
H    -2.31340   3.74719  -4.27479
C    -2.87166   3.99525  -2.20667
H    -3.94492   3.97373  -2.39543
H    -2.55556   5.04154  -2.19334
C    -2.58701   3.36290  -0.84767
H    -3.09030   3.92383  -0.05744
H    -2.96506   2.33799  -0.82279
C    -0.02791   0.56311   3.37474
H     0.17098  -0.32054   2.74822
C    -1.18705   0.28520   4.32255
H    -2.06402  -0.03469   3.76504
H    -1.42966   1.18386   4.88439
H    -0.91350  -0.50543   5.01451
C     1.23933   0.96225   4.12245
H     2.05424   1.15055   3.42562
H     1.53771   0.16120   4.79185
H     1.05751   1.86215   4.70516
C     3.66842   0.42150  -0.00681
H     3.05528  -0.34480   0.48558
C     4.55011  -0.22290  -1.06967
H     3.94321  -0.79378  -1.76831
H     5.25800  -0.89803  -0.59890
H     5.09568   0.54417  -1.61385
C     4.48732   1.18946   1.02438
H     3.83983   1.65967   1.76286
H     5.07028   1.96248   0.52967
H     5.16186   0.51107   1.53780
O    -1.38098  -0.77091   0.47019
