19

C     0.67331  -2.99020   0.35351
H     0.76286  -3.89719   0.96510
H     1.48393  -2.97521  -0.38893
C     1.92773  -1.83111   1.97514
H     2.82627  -1.79507   1.35051
H     1.96368  -2.72048   2.61149
H     1.88158  -0.94082   2.59974
I    -2.10524   0.51504   1.21882
O     0.75459  -1.84651   1.18247
Zn    0.00000   0.00000   0.00000
C    -0.67329  -2.99021  -0.35353
H    -0.76282  -3.89718  -0.96513
H    -1.48391  -2.97523   0.38891
C    -1.92770  -1.83111  -1.97516
H    -2.82625  -1.79508  -1.35054
H    -1.96364  -2.72047  -2.61152
H    -1.88156  -0.94082  -2.59976
O    -0.75457  -1.84651  -1.18248
O     1.39699   0.34174  -0.80879
