49

Zn    0.00000   0.00000   0.00000
N     0.45293   1.01068   1.77680
N     1.99035   2.08832   2.94830
H     2.72803   2.73967   3.16021
N     0.89412   3.68825  -1.45425
C     0.69263   3.15615  -0.25857
C     1.73598   2.63585   0.52324
C     3.03389   2.72815   0.03317
H     3.85852   2.31455   0.59459
C     3.23566   3.30412  -1.20903
H     4.22551   3.38234  -1.62903
C     2.12938   3.74649  -1.91918
H     2.22959   4.17281  -2.90839
C     1.39971   1.92139   1.74216
C     0.40281   0.54713   3.06791
C    -0.41288  -0.41532   3.65134
H    -1.15332  -0.93338   3.06331
C    -0.22595  -0.66475   4.99448
H    -0.83765  -1.40641   5.48505
C     0.73813   0.01515   5.74386
H     0.84740  -0.21845   6.79217
C     1.55482   0.97445   5.17885
H     2.30009   1.49726   5.75844
C     1.37397   1.23100   3.82916
Cl   -2.02861  -0.83188   0.33541
N    -0.45261   1.01051  -1.77696
N    -1.98965   2.08846  -2.94867
H    -2.72719   2.73993  -3.16068
N    -0.89377   3.68827   1.45395
C    -0.69225   3.15615   0.25828
C    -1.73559   2.63582  -0.52353
C    -3.03350   2.72804  -0.03347
H    -3.85810   2.31440  -0.59490
C    -3.23530   3.30399   1.20874
H    -4.22515   3.38215   1.62875
C    -2.12903   3.74642   1.91889
H    -2.22928   4.17282   2.90806
C    -1.39925   1.92136  -1.74244
C    -0.40232   0.54703  -3.06810
C     0.41333  -0.41551  -3.65144
H     1.15359  -0.93372  -3.06331
C     0.22659  -0.66484  -4.99462
H     0.83827  -1.40656  -5.48513
C    -0.73725   0.01526  -5.74413
H    -0.84637  -0.21826  -6.79247
C    -1.55389   0.97466  -5.17921
H    -2.29897   1.49762  -5.75890
C    -1.37324   1.23109  -3.82947
O     1.50886  -0.61943  -0.24933
