24

Pt    0.00000   0.00000   0.00000
Cl    0.50318   0.48987  -2.14020
N    -1.85597  -0.62118  -0.83893
H    -2.21964   0.28749  -1.13344
H    -1.57772  -1.10398  -1.69511
N    -0.53520  -0.48620   2.04135
C    -2.86488  -1.36184  -0.08835
H    -2.58590  -2.41862  -0.07330
H    -3.84886  -1.27942  -0.56852
C    -2.95719  -0.84080   1.34591
H    -3.86432  -1.24026   1.80217
H    -3.04686   0.24628   1.32748
C    -1.76717  -1.27249   2.20605
H    -2.06404  -1.23432   3.26466
H    -1.53731  -2.31403   1.96553
C    -0.65876   0.79717   2.73869
H    -0.86019   0.64114   3.80552
H    -1.46620   1.38992   2.31168
H     0.27317   1.35010   2.62679
C     0.56158  -1.24380   2.65604
H     0.33486  -1.47096   3.70420
H     1.47616  -0.65603   2.60093
H     0.71825  -2.17525   2.11260
O     1.45162   0.60407   0.50039
