47

Pt    0.00000   0.00000   0.00000
P    -0.53217  -1.90030   1.18200
Cl    0.66581  -1.62830  -1.49089
C    -1.28816  -1.74837   2.87072
H    -0.60572  -1.12914   3.45727
H    -2.21137  -1.17861   2.73973
C    -1.72097  -2.97239   0.27907
H    -1.17881  -3.39224  -0.57039
H    -2.05586  -3.79048   0.92067
C    -1.58315  -3.03622   3.62867
H    -2.04993  -2.79537   4.58248
H    -0.67332  -3.59330   3.83559
H    -2.26552  -3.67802   3.07771
C     0.91779  -2.99384   1.46019
H     0.63495  -3.84257   2.08691
H     1.21644  -3.36728   0.47876
C    -2.89115  -2.13438  -0.22111
H    -3.46235  -1.71780   0.60684
H    -3.56033  -2.72974  -0.83828
H    -2.50491  -1.31076  -0.82555
C     2.05839  -2.19108   2.07372
H     1.79814  -1.82658   3.06604
H     2.27253  -1.33233   1.43393
H     2.95989  -2.79468   2.15248
P    -0.53208   1.89871   1.18189
C    -1.28820   1.74713   2.87061
H    -0.60586   1.12787   3.45723
H    -2.21143   1.17740   2.73965
C    -1.72084   2.97099   0.27906
H    -1.17868   3.39093  -0.57036
H    -2.05584   3.78909   0.92063
C    -1.58321   3.03492   3.62865
H    -2.05007   2.79415   4.58246
H    -0.67336   3.59195   3.83561
H    -2.26551   3.67676   3.07765
C     0.91772   2.99244   1.46023
H     0.63489   3.84120   2.08697
H     1.21642   3.36596   0.47884
C    -2.89101   2.13304  -0.22123
H    -3.46229   1.71643   0.60665
H    -3.56016   2.72841  -0.83844
H    -2.50472   1.30946  -0.82567
C     2.05833   2.18975   2.07382
H     1.79807   1.82524   3.06613
H     2.27251   1.33103   1.43402
H     2.95981   2.79337   2.15262
O     0.47664   1.16468  -1.06716
