57

Cl    0.95581   2.10352   0.03893
C    -0.74217   1.55237  -2.66538
C    -3.51060   1.95505  -2.13612
C    -4.46652   1.02710  -1.74692
C    -5.68075   0.95956  -2.40773
C    -5.94597   1.81883  -3.45981
C    -4.99298   2.74476  -3.85454
C    -3.77809   2.81158  -3.19899
C    -0.89010   0.08542  -3.05868
C    -1.65186   3.82703  -0.95870
C    -2.78658   4.34340  -0.08581
H    -0.48019  -0.57353  -2.26961
H    -4.25307   0.36089  -0.92313
H    -6.41897   0.23438  -2.09992
H    -6.89409   1.76898  -3.97414
H    -5.19741   3.41590  -4.67587
H    -3.04107   3.53690  -3.51448
H    -0.33294  -0.10853  -3.97338
H    -2.61400   5.38366   0.18067
H    -2.84629   3.75825   0.83115
H    -3.74346   4.26954  -0.60197
H    -1.60968   4.35400  -1.91358
H    -0.69067   3.93764  -0.45331
H    -1.93780  -0.17348  -3.22432
H     0.28831   1.77373  -2.36373
H    -1.02180   2.20281  -3.50027
Pd    0.00000   0.00000   0.00000
P    -1.89587   2.02685  -1.28271
S    -2.08517   0.96423   0.38833
S     2.08391  -0.96560  -0.38741
P     1.89521  -2.02778   1.28401
C     0.74139  -1.55305   2.66650
C     3.50991  -1.95614   2.13758
C     1.65118  -3.82793   0.95989
C     0.88951  -0.08616   3.05997
H    -0.28911  -1.77413   2.36470
H     1.02074  -2.20359   3.50139
C     4.46593  -1.02842   1.74816
C     3.77732  -2.81246   3.20066
C     2.78582  -4.34460   0.08705
H     1.60901  -4.35479   1.91482
H     0.68999  -3.93865   0.45449
H     0.47990   0.57304   2.27096
H     0.33218   0.10778   3.97457
H     1.93721   0.17257   3.22583
C     5.68022  -0.96084   2.40884
H     4.25250  -0.36235   0.92427
C     4.99227  -2.74559   3.85611
H     3.04026  -3.53759   3.51645
H     2.61307  -5.38490  -0.17923
H     2.84560  -3.75966  -0.83004
H     3.74274  -4.27082   0.60316
C     5.94537  -1.81990   3.46110
H     6.41846  -0.23584   2.10075
H     5.19667  -3.41654   4.67760
H     6.89355  -1.77008   3.97530
O    -0.68227  -1.50209  -0.02691
