69

Pd    0.00000   0.00000   0.00000
Cl    0.62558  -0.82327   2.19131
P    -0.35292   0.87765  -2.02477
P     2.17128   0.29608   1.65276
O     0.39467   2.14567  -2.16460
N     2.51313   2.98341   2.47027
O     2.14785   0.57653   0.20263
N     1.69895   1.58720   3.98385
N    -3.00189   0.91076  -3.08474
C    -2.12717   1.22092  -2.16347
N    -2.69545   1.95831  -1.16678
C     1.91404   2.78415   4.56592
H     1.69335   2.94385   5.60202
C     2.04372   1.73174   2.72011
C    -1.49206   3.78301  -0.13102
H    -1.59858   4.34191  -1.04805
C     2.42668   3.66150   3.64572
H     2.71136   4.69059   3.72633
C     2.99999   3.49226   1.24673
C    -0.94973  -1.43471  -3.52352
H    -0.60662  -2.19209  -4.22745
H    -1.82481  -0.93522  -3.93075
H    -1.24003  -1.92517  -2.59727
C     4.24985   4.10089   1.22084
H     4.83349   4.16961   2.12807
C     4.73999   4.59767   0.02722
H     5.71289   5.06546   0.00485
C     0.15938  -0.42718  -3.26869
C     3.98953   4.48648  -1.13268
H     4.38080   4.86879  -2.06323
C    -0.71053   3.60313   2.13240
H    -0.22386   4.04309   2.99106
C    -1.87381   1.74877   1.12384
H    -2.39489   0.79835   1.22454
C    -1.21547   2.31368   2.21304
H    -1.13521   1.76005   3.13978
C     2.23764   3.39665   0.09273
H     1.25856   2.94175   0.10754
C     0.53475   0.31178  -4.54692
H     0.91137  -0.38471  -5.29497
H     1.29806   1.05914  -4.33953
H    -0.34255   0.81809  -4.94531
C     3.54868  -1.14700   3.59741
H     4.50017  -1.55176   3.93773
H     2.79506  -1.92668   3.68246
H     3.26334  -0.32606   4.25349
C    -2.01212   2.49670  -0.05347
C     2.74136   3.88872  -1.09771
H     2.14199   3.78335  -1.98708
C     3.67619  -0.66777   2.15916
C    -0.84894   4.33464   0.96445
H    -0.45635   5.33874   0.90439
C     1.37713  -1.10002  -2.62756
H     1.84088  -1.80319  -3.31886
H     1.06600  -1.65387  -1.72173
H     2.11249  -0.33936  -2.34863
C     4.84853   0.29415   1.99224
H     5.79285  -0.23590   2.10377
H     4.80900   1.08209   2.74374
H     4.82493   0.75423   1.00377
C    -4.17592   1.45482  -2.68292
H    -5.06413   1.34086  -3.27157
C    -4.00984   2.11141  -1.49625
H    -4.69171   2.65444  -0.87389
C     3.77766  -1.83016   1.17769
H     4.65578  -2.43549   1.39499
H     3.85755  -1.45574   0.15754
H     2.89643  -2.46983   1.24288
O    -1.32912  -0.96881  -0.13174
