51

Pd    0.00000   0.00000   0.00000
P    -1.80865   0.06109   2.28984
N     1.23891   1.57252   0.03397
N    -0.42763   0.75903   1.88601
C    -2.37428   0.90562   3.81447
C    -3.25191   0.32518   1.18618
C     0.94633   2.49119   0.96582
C    -4.52932  -0.01533   1.61352
H    -4.66658  -0.47636   2.58086
C    -1.38808  -1.60152   2.86871
C    -3.07950   0.94945  -0.04725
H    -2.07075   1.19490  -0.41663
C     1.72532   3.62656   1.13508
H     1.46167   4.34528   1.89554
C    -0.26899   2.20570   1.80587
H    -0.13978   2.62918   2.81228
H    -1.13261   2.71772   1.34760
C    -2.99120   2.32371   6.12204
H    -3.23824   2.86987   7.02020
C    -1.98621  -3.65153   3.95542
H    -2.73015  -4.28016   4.42229
C    -2.34183  -2.39906   3.48389
H    -3.35774  -2.04599   3.58758
C    -3.22509   2.00334   3.75631
H    -3.65260   2.30356   2.80866
C     2.83081   3.81732   0.32268
H     3.44886   4.69484   0.43603
C     2.30761   1.74658  -0.74285
H     2.48295   0.97370  -1.48287
C     3.12702   2.85542  -0.63151
H     3.97989   2.95970  -1.28232
C    -3.53555   2.70586   4.90712
H    -4.20264   3.55392   4.85517
Cl    0.66559  -0.63725  -2.04026
C    -1.81094   0.54284   5.03254
H    -1.12918  -0.29569   5.07165
C    -0.07564  -2.04533   2.73933
H     0.65790  -1.41856   2.22767
C    -0.68209  -4.09622   3.82707
H    -0.40774  -5.07460   4.19255
C    -2.12483   1.24387   6.18240
H    -1.69260   0.94933   7.12740
C    -5.62120   0.23512   0.80127
H    -6.60995  -0.04968   1.12944
C     0.27267  -3.29142   3.22140
H     1.28763  -3.64447   3.11542
C    -5.44671   0.85032  -0.42645
H    -6.29911   1.04519  -1.05972
C    -4.17583   1.21215  -0.84696
H    -4.03743   1.68897  -1.80582
O    -1.08290  -1.24474   0.02109
