19

Zn    0.00000   0.00000   0.00000
N     2.17251   0.00299  -0.35602
H     2.44032  -0.81467  -0.90210
N     0.73609   0.00297   2.07444
H     0.38677  -0.81497   2.57191
Cl   -0.63269  -2.06112  -0.37147
C     2.88170   0.00195   0.89443
C     2.17348   0.00195   2.09273
C     2.86904   0.00074   3.29730
H     2.31534   0.00066   4.22544
C     4.25058  -0.00045   3.31626
H     4.77602  -0.00145   4.25838
C     4.95529  -0.00045   2.12385
H     6.03401  -0.00144   2.12979
C     4.27237   0.00074   0.92275
H     4.81838   0.00067  -0.00993
H     2.43864   0.82258  -0.90002
H     0.38773   0.82224   2.57037
O    -0.48316   1.55174  -0.28487
