68

Au    0.00000   0.00000   0.00000
P    -2.22448  -0.32565   0.07424
C    -3.29174  -0.73176  -1.34290
C    -4.43371  -1.54543  -1.18228
H    -4.60253  -2.04157  -0.23633
C    -5.30648  -1.71826  -2.21586
H    -6.17343  -2.35263  -2.09756
C    -5.10945  -1.05968  -3.44827
C    -6.02244  -1.18270  -4.51575
H    -6.89370  -1.80785  -4.38208
C    -5.81363  -0.52099  -5.69333
H    -6.51833  -0.61871  -6.50583
C    -4.68366   0.29593  -5.85671
H    -4.53837   0.81942  -6.78997
C    -3.77393   0.42822  -4.84565
H    -2.90334   1.05715  -4.96469
C    -3.95853  -0.24823  -3.61961
C    -3.03108  -0.12676  -2.55582
C    -1.76611   0.62016  -2.73041
C    -1.71737   2.00441  -2.42892
C    -2.86768   2.72803  -2.04704
H    -3.82182   2.21982  -2.01801
C    -2.78087   4.05106  -1.71765
H    -3.66644   4.59413  -1.42096
C    -1.54464   4.71372  -1.75883
H    -1.49410   5.75813  -1.48805
C    -0.41735   4.04522  -2.14621
H     0.53710   4.54966  -2.18734
C    -0.47088   2.68034  -2.49543
C     0.67629   1.96495  -2.89709
H     1.62344   2.48043  -2.94259
C     0.60104   0.63537  -3.19548
H     1.48464   0.08875  -3.48801
C    -0.62225  -0.06028  -3.10640
C    -0.63956  -1.52128  -3.32505
C     0.18555  -2.32941  -2.54631
H     0.84548  -1.87226  -1.82182
C     0.15581  -3.70500  -2.68350
H     0.79381  -4.31769  -2.06324
C    -0.68496  -4.29311  -3.61356
H    -0.71018  -5.36775  -3.72000
C    -1.48209  -3.49534  -4.41661
H    -2.12482  -3.94526  -5.15957
C    -1.46044  -2.11957  -4.27550
H    -2.07065  -1.50732  -4.92204
C    -2.57858  -1.67426   1.22928
C    -2.20938  -2.95232   0.80916
H    -1.81194  -3.08502  -0.19063
C    -2.35732  -4.02752   1.66191
H    -2.07750  -5.01798   1.33517
C    -2.85766  -3.83147   2.94110
H    -2.96865  -4.67185   3.60991
C    -3.20536  -2.56043   3.36606
H    -3.58552  -2.40959   4.36571
C    -3.06284  -1.47671   2.51606
H    -3.32666  -0.48168   2.84751
C    -3.08805   1.11855   0.75823
C    -4.47719   1.16920   0.84391
H    -5.07036   0.32702   0.51455
C    -5.09334   2.29932   1.34651
H    -6.17094   2.33772   1.41311
C    -4.33337   3.38197   1.76156
H    -4.82096   4.26403   2.14923
C    -2.95205   3.33419   1.67774
H    -2.35819   4.17747   1.99669
C    -2.32970   2.20632   1.17500
H    -1.25057   2.16155   1.09243
O     1.62658   0.27641  -0.01799
