38

Zn    0.00000   0.00000   0.00000
Cl   -1.24193   0.89733   1.64265
N    -1.67789  -0.86762  -1.12328
C    -2.62316  -0.15501  -1.72186
C    -2.53822   1.32181  -1.62190
H    -2.55241   1.61413  -0.57156
H    -3.35395   1.80662  -2.14925
H    -1.58399   1.65765  -2.02821
C    -3.65801  -0.78673  -2.41891
H    -4.41911  -0.19389  -2.90085
C    -3.69036  -2.16471  -2.47929
H    -4.47928  -2.67493  -3.01184
C    -2.69378  -2.89251  -1.84604
H    -2.70581  -3.96883  -1.88380
C    -1.69326  -2.20111  -1.17100
C    -0.58919  -2.87633  -0.46695
N     0.28603  -2.07345   0.12239
C     1.33167  -2.53687   0.79298
C     1.54784  -3.91143   0.90240
H     2.39080  -4.30598   1.44385
C     0.64881  -4.77205   0.29637
H     0.79223  -5.84009   0.36540
C    -0.43432  -4.26172  -0.39838
H    -1.13511  -4.92918  -0.87043
C     2.20755  -1.51183   1.38689
N     1.83327  -0.24675   1.18647
C     2.54741   0.75884   1.67478
C     2.06681   2.13644   1.41099
H     2.00314   2.29782   0.33447
H     2.72065   2.88000   1.85631
H     1.05689   2.24943   1.80527
C     3.71126   0.51491   2.41084
H     4.28185   1.34284   2.80072
C     4.11386  -0.78663   2.62845
H     5.00891  -0.99980   3.19393
C     3.35339  -1.82466   2.11070
H     3.65488  -2.84590   2.27210
O     0.71846   0.74068  -1.28752
