43

Pd    0.00000   0.00000   0.00000
I     1.07061  -0.44083   2.34174
N    -0.66669   2.71268   0.98965
N    -2.29616   1.31599   1.35200
N     1.55511  -2.26676  -1.40096
C    -1.05952   1.43656   0.84157
C    -1.66391   3.43685   1.60744
C    -1.75850   4.76694   1.98225
H    -0.95178   5.46069   1.80671
C    -2.93398   5.16438   2.59141
H    -3.04687   6.19269   2.89806
C    -3.97907   4.27099   2.81992
H    -4.87839   4.62757   3.29770
C    -3.89272   2.94179   2.45029
H    -4.70342   2.25332   2.62826
C    -2.71793   2.53465   1.83980
C     0.61493   3.20654   0.55737
H     1.19170   3.57096   1.41042
H     0.48854   4.01300  -0.16793
H     1.16757   2.37712   0.07908
C    -3.03764   0.08194   1.36045
H    -3.94998   0.18021   0.76783
H    -3.29627  -0.20128   2.38274
H    -2.40596  -0.70933   0.91796
C     1.00540  -1.40273  -0.84662
C     2.12571  -3.28114  -2.09594
C     1.36835  -3.91226  -3.09136
C     1.96762  -4.94806  -3.78986
H     1.40877  -5.45446  -4.56244
C     3.26698  -5.33470  -3.50757
H     3.71661  -6.14344  -4.06365
C     3.99519  -4.69440  -2.51879
H     5.00761  -5.00417  -2.30723
C     3.43959  -3.65466  -1.79084
C    -0.03062  -3.46328  -3.36656
H    -0.50202  -4.09949  -4.10999
H    -0.03975  -2.43587  -3.73325
H    -0.62964  -3.48706  -2.45491
C     4.19180  -2.93549  -0.71667
H     4.27352  -1.87365  -0.95247
H     5.19192  -3.34463  -0.60558
H     3.67230  -3.01800   0.23868
O    -0.76029   0.36547  -1.41806
