51

Ti    0.00000   0.00000   0.00000
N    -0.87442  -1.42556  -0.19364
N     1.07488   1.88282   0.31761
N     1.73343  -0.97370  -0.84357
N    -1.77633   0.78778   0.76156
Cl   -0.25963   0.96329  -2.11869
O    -1.56217  -2.56980  -0.34059
C    -1.37091  -3.54107   0.72091
C     0.10920  -3.92795   0.78823
C    -1.82307  -2.94188   2.05379
C    -2.24226  -4.72689   0.31544
C     2.08036   2.21962  -0.48306
C     2.80379   3.39302  -0.33691
C     2.46125   4.26567   0.68281
C     1.40901   3.92056   1.51526
C     0.75123   2.72017   1.29685
C    -2.75765   1.11172  -0.09318
C    -4.07546   1.27170   0.29367
C    -4.42079   1.09761   1.62714
C    -3.40745   0.78098   2.52002
C    -2.11287   0.64365   2.05266
C     2.91390  -1.10107  -0.23477
C     3.91134  -1.95141  -0.68866
C     3.68673  -2.69693  -1.83334
C     2.46691  -2.55091  -2.48085
C     1.52334  -1.68648  -1.95310
H     0.27072  -4.66415   1.57034
H     0.70042  -3.03618   1.00932
H     0.43388  -4.33938  -0.16635
H    -1.76099  -3.68738   2.84146
H    -1.17511  -2.10204   2.30451
H    -2.84943  -2.58696   1.97448
H    -2.14862  -5.52495   1.04661
H    -3.28263  -4.41884   0.25410
H    -1.93512  -5.09740  -0.65898
H     2.30914   1.53279  -1.29099
H     3.61406   3.61631  -1.01338
H     2.99956   5.19123   0.82480
H     1.10226   4.56639   2.32323
H    -0.06393   2.41876   1.94645
H    -2.46941   1.23690  -1.13215
H    -4.82107   1.52824  -0.44278
H    -5.44210   1.20805   1.95837
H    -3.61460   0.64189   3.56997
H    -1.30920   0.39160   2.73826
H     3.06816  -0.51113   0.66371
H     4.84347  -2.02260  -0.15001
H     4.43948  -3.37173  -2.21292
H     2.24696  -3.10405  -3.38043
H     0.55514  -1.55183  -2.42737
O     0.66708  -0.27985   1.48297
