49

Zn    0.00000   0.00000   0.00000
Cl    0.01747   2.08277   0.77152
O    -1.59904  -0.86165   0.92748
O    -4.81368  -5.78097  -1.92921
N    -3.81765  -1.24055   1.11568
H    -4.66666  -0.93251   1.57198
C    -3.98724  -2.39090   0.31856
C    -3.00740  -2.88901  -0.52889
H    -2.05013  -2.40414  -0.60997
C    -3.25125  -4.01589  -1.29393
H    -2.46704  -4.36496  -1.94528
C    -4.47735  -4.66781  -1.22492
C    -5.46266  -4.16235  -0.37318
H    -6.41319  -4.66913  -0.32696
C    -5.22041  -3.03929   0.38459
H    -5.99554  -2.65795   1.03486
C    -2.88830   0.65789   2.26588
H    -2.73798   0.35042   3.30010
H    -3.87759   1.09552   2.16497
H    -2.12844   1.40084   2.02727
C    -2.70230  -0.53444   1.36922
C    -3.86630  -6.32205  -2.81959
H    -3.59871  -5.60715  -3.60373
H    -4.34777  -7.18858  -3.27009
H    -2.96054  -6.64296  -2.29542
O     1.57931  -0.88922   0.93372
O     4.82017  -5.75137  -1.99133
N     3.79341  -1.28117   1.14603
H     4.63705  -0.98663   1.62082
C     3.97099  -2.41288   0.32436
C     2.99928  -2.89247  -0.54294
H     2.04209  -2.40704  -0.62135
C     3.25098  -4.00159  -1.33102
H     2.47301  -4.33600  -1.99735
C     4.47682  -4.65433  -1.26551
C     5.45403  -4.16748  -0.39382
H     6.40456  -4.67451  -0.35050
C     5.20403  -3.06191   0.38680
H     5.97297  -2.69491   1.05248
C     2.85284   0.59453   2.32533
H     2.65839   0.27021   3.34698
H     3.85265   1.01588   2.26938
H     2.11508   1.35570   2.07439
C     2.67714  -0.57651   1.39932
C     3.88010  -6.27435  -2.90014
H     3.62011  -5.54436  -3.67285
H     4.36460  -7.13276  -3.36276
H     2.96946  -6.60404  -2.39008
O    -0.00573  -0.74379  -1.47283
