37

Cr    0.00000   0.00000   0.00000
Cl    0.99947   1.79874  -0.66271
N     1.29112  -0.12862   1.58460
C     2.49603  -0.70677   1.44397
C     3.41115  -0.77118   2.48147
H     4.36795  -1.24320   2.32170
C     3.08752  -0.23102   3.71595
H     3.78226  -0.27032   4.54014
C     1.84180   0.35955   3.85824
H     1.54340   0.79302   4.79997
C     0.97320   0.39578   2.78029
C     2.81760  -1.29485   0.10739
H     3.77912  -1.80073   0.13019
H     2.85243  -0.50454  -0.64374
H     2.04295  -2.01127  -0.17166
C    -0.37117   1.03802   2.90709
H    -0.53117   1.40023   3.91904
H    -1.14879   0.31336   2.66126
H    -0.44210   1.87855   2.21515
N    -1.29101   0.12887  -1.58474
C    -2.49591   0.70696  -1.44409
C    -3.41105   0.77136  -2.48160
H    -4.36786   1.24335  -2.32182
C    -3.08741   0.23122  -3.71608
H    -3.78215   0.27051  -4.54027
C    -1.84168  -0.35931  -3.85838
H    -1.54328  -0.79278  -4.80010
C    -0.97307  -0.39551  -2.78041
C     0.37130  -1.03776  -2.90726
H     0.53130  -1.39992  -3.91923
H     1.14892  -0.31312  -2.66138
H     0.44222  -1.87833  -2.21538
C    -2.81755   1.29501  -0.10751
H    -3.77912   1.80079  -0.13030
H    -2.85232   0.50470   0.64362
H    -2.04297   2.01150   0.17153
O    -0.76324  -1.37285   0.50522
