45

Zn    0.00000   0.00000   0.00000
Cl    1.71220   1.10089   0.95378
N    -2.15362   1.57878   3.18741
N    -0.00316   1.00875  -1.83529
N     0.86651   2.29076  -3.38829
N    -1.50282   0.67317   1.29772
N     4.11912   6.14211  -5.83630
N    -2.14168   4.87832   7.71509
C     0.87711   1.94484  -2.08300
H     1.54457   2.34217  -1.34381
C     1.68412   3.24866  -4.00041
C     2.85467   4.04809  -5.93934
H     3.15595   3.95320  -6.97128
C     2.93076   5.29716  -3.86854
H     3.28425   6.15877  -3.32326
C    -0.62205   0.72881  -3.01660
H    -1.38898  -0.01621  -3.07542
C    -0.08947   1.51120  -3.99243
H    -0.33014   1.59458  -5.03130
C     3.28687   5.14373  -5.20284
C     2.05442   3.09948  -5.33648
H     1.73263   2.23497  -5.89482
C     2.12685   4.35053  -3.26822
H     1.83222   4.46813  -2.23790
O     4.47253   7.08280  -5.16173
O     4.40369   5.97272  -7.00070
C    -1.22117   1.56686   2.21157
H    -0.36501   2.21023   2.17166
C    -0.94078   2.80991   4.87649
H    -0.00973   2.47703   4.44620
C    -2.14445   4.02394   6.54894
C    -3.08113   0.62184   2.85481
H    -3.92113   0.39278   3.47617
C    -0.93644   3.62499   5.98956
H    -0.01175   3.95367   6.43853
C    -2.15346   2.39975   4.32160
C    -3.36037   2.80531   4.89015
H    -4.29635   2.49983   4.45005
C    -2.65806   0.06426   1.68935
H    -3.08712  -0.72839   1.11089
C    -3.35665   3.61648   6.00612
H    -4.27718   3.94588   6.46303
O    -1.06724   5.22953   8.14725
O    -3.21564   5.18771   8.18131
O    -0.35169  -1.58114  -0.31435
