62

C     1.48975   2.93332   0.08955
H     1.72192   3.81905  -0.50403
H     1.47902   3.21038   1.15013
C     2.53189   1.84219  -0.14036
H     2.62052   1.61610  -1.20956
H     3.51954   2.17800   0.21804
C     3.06807  -0.45385   0.55968
H     4.02741  -0.13331   0.99920
H     3.25689  -0.75740  -0.47696
C     2.47534  -1.61168   1.35861
H     2.28516  -1.28392   2.38573
H     3.14378  -2.47294   1.38466
C    -1.27891   3.29500   0.79314
H    -0.99686   2.91798   1.78741
C    -2.73957   2.91982   0.55635
H    -3.35430   3.25625   1.38889
H    -2.84241   1.83633   0.47108
H    -3.11956   3.37637  -0.35523
C    -1.07892   4.80728   0.80195
H    -1.54078   5.27925  -0.05938
H    -0.02706   5.08258   0.82988
H    -1.55343   5.21295   1.69457
C    -0.38491   2.82727  -2.09773
H     0.52150   2.40584  -2.56072
C    -1.59659   2.16274  -2.74817
H    -2.52289   2.60672  -2.39234
H    -1.62145   1.09624  -2.52279
H    -1.55345   2.28415  -3.82922
C    -0.40441   4.32885  -2.36441
H    -0.21976   4.50454  -3.42361
H     0.35490   4.86465  -1.79956
H    -1.37795   4.74861  -2.12675
C     0.07449  -3.27483   1.76563
H     0.36564  -4.26094   1.38147
C     0.54365  -3.16050   3.21268
H     0.32788  -2.17405   3.61671
H     1.60787  -3.36736   3.30877
H     0.00476  -3.89008   3.81544
C    -1.44741  -3.15576   1.68359
H    -1.91824  -3.99722   2.18940
H    -1.78590  -3.14021   0.64787
H    -1.78357  -2.24149   2.16701
C     1.37267  -3.13131  -0.83331
H     1.86695  -2.44484  -1.53425
C     2.34895  -4.25947  -0.51136
H     1.98928  -4.89470   0.29545
H     3.33171  -3.87917  -0.24103
H     2.47025  -4.88403  -1.39527
C     0.11560  -3.66724  -1.51689
H     0.36289  -4.09547  -2.48670
H    -0.60077  -2.85766  -1.67348
H    -0.35671  -4.44032  -0.91397
C    -1.63304  -0.50298  -0.44294
C     0.48026  -0.21766  -1.66655
Mn    0.00000   0.00000   0.00000
N     2.09925   0.63810   0.55972
O    -2.68481  -0.84994  -0.78990
O     0.78180  -0.37191  -2.77738
P    -0.19844   2.26236  -0.32398
P     0.83961  -2.03652   0.58998
H     1.95430   0.90112   1.54290
O    -0.32376   0.19535   1.60609
