28

Pt    0.00000   0.00000   0.00000
Cl   -2.00604   1.08682   0.14528
Cl    0.90983   1.58038  -1.37876
O    -0.57174  -1.31118  -1.51807
O    -0.36498  -3.54617  -1.84803
N     1.73017  -1.15211  -0.20349
N    -0.79189  -1.57878   1.11481
C    -0.10361  -2.46870  -0.99819
C     1.40745  -2.32569  -0.73762
C     2.99575  -0.82481   0.00991
C     4.01796  -1.70286  -0.30840
C     3.69900  -2.93608  -0.86004
C     2.36887  -3.25974  -1.07997
C    -0.74199  -2.68934   0.38623
C    -1.38400  -1.56644   2.29957
C    -1.95880  -2.71528   2.81626
C    -1.90992  -3.88605   2.07214
C    -1.28918  -3.87907   0.83243
H    -0.83786  -3.17860  -2.60744
H     3.17340   0.15247   0.43778
H     5.04296  -1.41877  -0.13334
H     4.47763  -3.63510  -1.12567
H     2.06208  -4.19346  -1.52256
H    -1.38978  -0.62029   2.82374
H    -2.44181  -2.68668   3.77938
H    -2.35867  -4.79292   2.44799
H    -1.23700  -4.75212   0.20219
O     0.54677   0.83147   1.31613
