53

C     0.48399  -2.73087  -1.51696
C    -0.57673  -3.49146  -1.03983
H    -1.27447  -3.06752  -0.33596
C    -0.69832  -4.77550  -1.52621
H    -1.51255  -5.39756  -1.18725
C     0.21183  -5.29964  -2.44799
H     0.08569  -6.31618  -2.78889
C     1.26449  -4.55337  -2.93795
H     1.96801  -4.96961  -3.64210
C     1.38049  -3.25028  -2.47423
C     3.36446  -2.24228  -3.62569
C     3.20242  -2.77385  -4.89953
H     2.24340  -3.16704  -5.19983
C     4.26662  -2.76729  -5.78325
H     4.13970  -3.17862  -6.77311
C     5.48454  -2.22664  -5.40626
H     6.31103  -2.22161  -6.10011
C     5.63892  -1.68610  -4.14028
H     6.58505  -1.25862  -3.84553
C     4.58415  -1.69352  -3.24606
H     4.70134  -1.28266  -2.25476
C     1.92631  -1.20007  -1.93419
H     2.43491  -0.25438  -1.92841
C     1.73644  -0.31981   2.62267
C     2.93854   0.24784   2.21753
H     3.04543   0.63443   1.21698
C     3.94997   0.31192   3.15190
H     4.89739   0.75188   2.88038
C     3.78387  -0.18417   4.44772
H     4.60933  -0.12537   5.14105
C     2.59349  -0.74276   4.86720
H     2.47714  -1.13197   5.86672
C     1.56063  -0.78937   3.94118
C    -0.40560  -1.82334   5.09915
C    -0.29806  -1.22417   6.34847
H     0.28933  -0.32645   6.46502
C    -0.97057  -1.76874   7.42767
H    -0.88924  -1.30146   8.39726
C    -1.75335  -2.89944   7.26471
H    -2.27841  -3.31890   8.10905
C    -1.86728  -3.48757   6.01578
H    -2.48035  -4.36607   5.88474
C    -1.19455  -2.95555   4.93099
H    -1.27185  -3.41482   3.95718
C    -0.25830  -1.09417   2.76159
H    -1.26829  -1.35304   2.50474
N     0.86729  -1.44759  -1.21045
N     2.28796  -2.23749  -2.71924
N     0.57266  -0.53290   1.92414
N     0.26795  -1.27452   3.99186
Cl   -2.16605  -0.43554   0.14062
Zn    0.00000   0.00000   0.00000
O     0.90347   1.30279  -0.45714
