27

Pt    0.00000   0.00000   0.00000
I     0.96075   1.92656   1.47651
N     1.01221  -1.30276   1.04120
O     0.60189  -3.18495   4.05819
H     1.16765  -3.82213   4.51269
C     0.50595  -1.80015   2.16205
H    -0.47510  -1.45750   2.47539
C     1.19198  -2.73403   2.93629
C     2.21551  -1.69780   0.62759
H     2.58149  -1.26128  -0.29638
C     2.45097  -3.14986   2.50740
H     3.01344  -3.87243   3.08155
C     2.96235  -2.61909   1.33567
H     3.93245  -2.91870   0.97388
N    -1.01177   1.30314  -1.04103
O    -0.60122   3.18461  -4.05839
H    -1.16696   3.82170  -4.51303
C    -0.50538   1.80031  -2.16195
H     0.47567   1.45758  -2.47514
C    -1.19140   2.73395  -2.93645
C    -2.21515   1.69819  -0.62766
H    -2.58119   1.26174   0.29631
C    -2.45045   3.14983  -2.50779
H    -3.01290   3.87226  -3.08213
C    -2.96196   2.61926  -1.33602
H    -3.93213   2.91882  -0.97441
O    -0.60674  -1.21812  -0.93304
