60

Pt    0.00000   0.00000   0.00000
P    -0.56180   1.88018  -2.69299
S    -0.64217  -0.29816   2.31038
S     0.40632   0.15633  -2.34998
P    -2.41403   0.53767   1.94572
C    -1.54915   1.74441  -4.26062
H    -1.97271   2.72747  -4.48742
C    -0.62835   1.29828  -5.38856
H    -0.13687   0.36526  -5.11734
H     0.13597   2.04566  -5.59341
H    -1.20137   1.13604  -6.29968
C    -2.67075   0.74371  -4.01204
H    -3.24153   0.57803  -4.92366
H    -3.34943   1.10985  -3.24249
H    -2.25242  -0.20839  -3.68716
C    -1.57460   2.22945  -1.26914
C    -2.73338   3.06268  -1.03276
C    -3.08145   2.94061   0.32805
C    -2.06153   2.08162   1.00283
H    -1.46447   2.67112   1.71416
C    -3.60815  -0.57024   1.03246
H    -3.64732  -1.46873   1.66394
C    -4.99569   0.05426   0.92255
H    -4.94920   1.00168   0.38904
H    -5.44259   0.22426   1.89917
H    -5.64906  -0.61670   0.36763
C    -3.08055  -0.97131  -0.33907
H    -3.66380  -1.80187  -0.73164
H    -2.02993  -1.29658  -0.28703
H    -3.15600  -0.13892  -1.03617
C    -3.22996   0.97135   3.56040
H    -4.19588   1.43714   3.34205
C    -2.34534   1.95804   4.31339
H    -2.74178   2.12442   5.31321
H    -2.29969   2.92017   3.80630
H    -1.33608   1.55922   4.40741
C    -3.43054  -0.30856   4.36385
H    -2.47985  -0.82827   4.47356
H    -4.14074  -0.97712   3.88179
H    -3.80926  -0.07187   5.35644
C    -1.16283   1.59551  -0.11843
C    -4.16113   3.62039   0.84729
H    -4.41525   3.53951   1.89495
C    -4.92732   4.40554  -0.00504
H    -5.78569   4.93335   0.38189
C    -4.59618   4.51964  -1.34703
H    -5.20257   5.13807  -1.99239
C    -3.49869   3.85876  -1.87290
H    -3.24536   3.96376  -2.91771
C     0.67404   3.26021  -2.90212
H     1.39015   2.90341  -3.65258
C     1.39406   3.43361  -1.56945
H     2.25921   4.08279  -1.68514
H     1.73521   2.46884  -1.18759
H     0.72492   3.87460  -0.83186
C     0.02147   4.55759  -3.36080
H    -0.76692   4.85028  -2.66905
H    -0.40258   4.46173  -4.35822
H     0.76432   5.35304  -3.38542
O     0.91396  -1.37211   0.06700
