59

Y     0.00000   0.00000   0.00000
Br   -1.25003  -1.79523   1.58038
N    -1.36756   1.55535  -0.94377
N    -0.16405  -1.15195  -1.96959
N     1.90083  -1.94937  -0.06639
N    -0.96069   1.68490   1.96265
C    -1.90154   1.44982  -2.15091
C    -1.64813   0.41723  -3.06125
H    -2.16459   0.54342  -4.00172
C    -0.85892  -0.73850  -3.01741
C    -2.85504   2.51102  -2.65179
H    -3.68698   2.64030  -1.96013
H    -3.25730   2.24582  -3.62445
H    -2.34445   3.46981  -2.74381
C    -0.85225  -1.54350  -4.29782
H     0.16743  -1.72496  -4.63541
H    -1.38646  -1.02363  -5.08691
H    -1.33217  -2.51011  -4.14229
C     0.56858  -2.40411  -2.13283
H     1.39264  -2.26269  -2.84777
H    -0.08762  -3.18610  -2.53854
C     1.11925  -2.94593  -0.81138
H     0.27545  -3.25554  -0.18781
H     1.71164  -3.84738  -1.02565
C     2.24864  -2.47532   1.26714
H     3.10563  -3.15835   1.21048
H     1.39652  -3.04801   1.64182
C     2.54470  -1.36011   2.26409
H     2.66972  -1.78677   3.25624
H     1.70655  -0.65568   2.29358
H     3.44757  -0.80965   2.01054
C     3.11497  -1.54028  -0.80337
H     3.70191  -0.90857  -0.13510
H     2.80967  -0.91523  -1.64923
C     4.02011  -2.65833  -1.32631
H     4.93065  -2.20680  -1.71182
H     3.55529  -3.21712  -2.13523
H     4.29923  -3.35432  -0.53912
C    -1.72557   2.74842  -0.18352
H    -2.80325   2.74512   0.03696
H    -1.51700   3.65337  -0.77164
C    -0.93952   2.89185   1.12148
H    -1.34046   3.76113   1.66551
H     0.10295   3.12243   0.88408
C    -2.33399   1.33912   2.38363
H    -2.27127   0.44756   3.00818
H    -2.89934   1.05981   1.48858
C    -3.11297   2.41082   3.14833
H    -4.06870   1.98964   3.45001
H    -3.31178   3.28825   2.53724
H    -2.58447   2.72269   4.04520
C    -0.07608   1.93543   3.12047
H    -0.34776   2.88443   3.60722
H     0.93985   2.05542   2.72966
C    -0.07451   0.82522   4.16617
H     0.79169   0.95199   4.81103
H    -0.01533  -0.15715   3.70362
H    -0.96458   0.85676   4.78914
O     1.34603   0.94847   0.10542
