43

Zr    0.00000   0.00000   0.00000
Cl   -0.80868   1.13884  -1.87162
C    -2.04007  -1.31833  -0.39525
C    -1.03922  -2.22732   0.05826
H    -0.73852  -3.12914  -0.45956
C    -0.77825  -1.93784   1.43175
C     0.00624  -2.57586   2.41429
H     0.55230  -3.47969   2.17562
C     0.03040  -2.06006   3.68582
H     0.61721  -2.54748   4.45053
C    -0.71077  -0.91468   4.02782
H    -0.65845  -0.54598   5.04072
C    -1.51315  -0.28240   3.11230
H    -2.10779   0.57649   3.39070
C    -1.57536  -0.78631   1.79780
C    -2.33331  -0.40403   0.65235
H    -3.08908   0.37362   0.62079
C    -2.68289  -1.31390  -1.70235
H    -3.57906  -0.70861  -1.77685
C    -2.24842  -1.98803  -2.76239
H    -1.34686  -2.57924  -2.73476
H    -2.77292  -1.95466  -3.70082
C     1.80648  -0.98886  -1.34015
C     2.08317   0.40338  -1.37204
H     2.13936   1.01240  -2.26589
C     2.41580   0.82320  -0.05867
C     2.81906   2.06565   0.47054
H     2.92105   2.92288  -0.18109
C     3.07032   2.16121   1.81439
H     3.37506   3.10607   2.23764
C     2.93471   1.05006   2.66882
H     3.13769   1.17838   3.72137
C     2.56414  -0.18236   2.19496
H     2.49754  -1.03635   2.85666
C     2.30441  -0.33063   0.81466
C     1.93390  -1.44778   0.00951
H     1.96871  -2.48227   0.32441
C     1.46231  -1.77575  -2.51335
H     1.30406  -1.19993  -3.41977
C     1.35765  -3.10285  -2.55104
H     1.53505  -3.71975  -1.68518
H     1.11511  -3.62244  -3.46167
O    -0.13495   1.36846   0.91192
