31

Zr    0.00000   0.00000   0.00000
Cl    0.57036   0.40980  -2.22467
C    -1.94095   1.33614   0.53229
C    -1.25442   1.17225   1.76710
H    -1.66855   0.72932   2.66482
C    -0.03189   1.87714   1.68752
H     0.67241   2.01933   2.49819
C     0.04897   2.47264   0.41047
H     0.82985   3.14278   0.06945
C    -1.12985   2.14715  -0.30279
H    -1.40763   2.54976  -1.26993
C    -3.24028   0.69187   0.16406
H    -4.07470   1.14006   0.71289
C    -3.57333   0.55059  -1.33400
H    -4.28270   1.26300  -1.74865
H    -2.66491   0.53643  -1.94500
C    -4.09371  -0.86574  -1.05303
H    -3.84670  -1.64147  -1.77235
H    -5.16789  -0.87791  -0.87827
C    -3.30382  -0.87288   0.26919
H    -3.83870  -1.25522   1.14270
C    -1.94662  -1.50945   0.17749
C    -1.23015  -1.85057  -0.99888
H    -1.59775  -1.82609  -2.01778
C     0.02330  -2.39137  -0.61372
H     0.75536  -2.82904  -1.28396
C     0.08980  -2.37966   0.79590
H     0.87959  -2.81246   1.39816
C    -1.11403  -1.82361   1.28520
H    -1.41500  -1.80595   2.32592
O     1.57395  -0.06285   0.49116
