45

Hg    0.00000   0.00000   0.00000
I    -1.18557  -0.74934   2.19338
S    -2.08150   1.06804  -1.86557
S     0.62966   2.96315   0.42950
O     1.68314   3.94917  -3.12426
O     5.00704   2.33939   2.52159
N    -0.12733   2.69763  -2.63415
H     0.09120   2.81651  -1.62468
N    -1.48374   1.84954  -4.28710
H    -2.27193   1.26243  -4.53236
N     3.04600   2.64531   1.43240
H     2.55984   2.39668   2.28894
N     2.95965   3.31228  -0.76587
H     2.42157   3.58043  -1.61193
C    -1.17442   1.91865  -2.96686
C     0.70919   3.34017  -3.53500
C     0.32242   3.20886  -4.91663
H     0.93628   3.70727  -5.64424
C    -0.75959   2.47508  -5.26699
C    -1.25799   2.25542  -6.65872
H    -1.23431   1.17972  -6.86234
H    -2.30781   2.56449  -6.69870
C    -0.47911   2.98657  -7.74965
H     0.56012   2.65510  -7.74015
H    -0.49967   4.05997  -7.55483
C    -1.08221   2.71129  -9.12186
H    -1.05789   1.64750  -9.34621
H    -0.52206   3.23455  -9.89156
H    -2.11544   3.04811  -9.16340
C     2.30967   2.96201   0.35300
C     4.45851   2.63212   1.49026
C     5.07195   2.99473   0.23316
H     6.14756   2.99193   0.19567
C     4.32786   3.32380  -0.84690
C     4.88852   3.66441  -2.18478
H     4.26299   4.42169  -2.66054
H     5.89988   4.05487  -2.07231
C     4.92038   2.41885  -3.08482
H     3.91259   2.01288  -3.18011
H     5.54278   1.65312  -2.61983
C     5.46110   2.75991  -4.46559
H     4.83545   3.51015  -4.94349
H     5.47399   1.87144  -5.09089
H     6.47459   3.14837  -4.39797
O     1.16523  -0.15042  -1.15850
