35

Pd    0.00000   0.00000   0.00000
Cl   -0.67443   1.04293   1.94094
O     1.18331   3.33991   0.83733
N     1.84615   0.10287   0.66094
N     2.67974   1.07053   0.29084
C     2.40753  -0.54341   1.67146
C     3.64836   0.02562   1.95856
C     3.78370   1.05588   1.05474
C     2.38522   1.96485  -0.79981
C     1.16975   2.88706  -0.48383
H     0.65779   2.72820   1.39078
H     1.91367  -1.37136   2.14974
H     4.34047  -0.27396   2.71702
H     4.57690   1.76171   0.91608
H     2.17073   1.37807  -1.70322
H     3.27558   2.57449  -0.96067
H     1.23844   3.76411  -1.13637
H     0.22142   2.34935  -0.72089
N    -1.84621  -0.10309  -0.66094
N    -2.67982  -1.07086  -0.29115
C    -3.78336  -1.05651  -1.05566
C    -3.64772  -0.02637  -1.95958
C    -2.40716   0.54292  -1.67188
H    -1.91317   1.37087  -2.15002
H    -4.33946   0.27296  -2.71849
H    -4.57654  -1.76243  -0.91733
C    -2.38559  -1.96509   0.79964
C    -1.16998  -2.88726   0.48410
O    -1.18313  -3.34016  -0.83704
H    -0.65738  -2.72848  -1.39040
H    -1.23883  -3.76431   1.13662
H    -0.22164  -2.34963   0.72141
H    -2.17133  -1.37825   1.70306
H    -3.27597  -2.57476   0.96031
O     0.48304  -0.74707  -1.38962
