57

Br    1.65805   1.22426  -1.03395
Ni    0.00000   0.00000   0.00000
N    -0.29427  -1.58872  -2.41509
N    -1.63006   0.09508  -2.40889
C    -0.67649  -0.52278  -1.69245
C    -1.00631  -1.64094  -3.58272
H    -0.86546  -2.40846  -4.31455
C    -1.84853  -0.58253  -3.57783
H    -2.56928  -0.26968  -4.30387
C     0.73456  -2.51805  -1.99329
H     1.04234  -2.17997  -0.98865
C     1.93663  -2.43534  -2.92865
H     1.66506  -2.74784  -3.93452
H     2.73200  -3.08143  -2.56708
H     2.30993  -1.41393  -2.96667
C     0.16596  -3.92863  -1.88362
H    -0.69831  -3.93356  -1.22254
H     0.91793  -4.59841  -1.47525
H    -0.13568  -4.30214  -2.85957
C    -2.31738   1.29268  -1.96890
H    -1.83401   1.57721  -1.01849
C    -2.12224   2.42147  -2.97533
H    -1.06130   2.58514  -3.15305
H    -2.55382   3.34018  -2.58728
H    -2.60512   2.18617  -3.92102
C    -3.78758   0.98694  -1.70054
H    -4.28973   0.67647  -2.61417
H    -4.28544   1.87190  -1.31358
H    -3.87392   0.19026  -0.96434
N     0.29183   1.58821   2.41613
N     1.62758  -0.09562   2.41008
C     0.67374   0.52195   1.69377
C     1.00393   1.64056   3.58373
H     0.86332   2.40829   4.31538
C     1.84612   0.58213   3.57892
H     2.56707   0.26947   4.30485
C    -0.73669   2.51779   1.99413
H    -1.04452   2.17970   0.98951
C    -1.93876   2.43528   2.92950
H    -1.66716   2.74782   3.93535
H    -2.73406   3.08140   2.56785
H    -2.31212   1.41389   2.96758
C    -0.16791   3.92833   1.88446
H     0.69641   3.93320   1.22346
H    -0.91977   4.59821   1.47605
H     0.13369   4.30185   2.86042
C     2.31513  -1.29305   1.96998
H     1.83175  -1.57760   1.01959
C     2.11999  -2.42184   2.97636
H     1.05904  -2.58553   3.15399
H     2.55161  -3.34052   2.58829
H     2.60281  -2.18653   3.92208
C     3.78533  -0.98728   1.70159
H     4.28748  -0.67682   2.61522
H     4.28322  -1.87223   1.31464
H     3.87170  -0.19060   0.96538
O    -1.18688  -0.87529   0.74006
