64

C    -1.03814   1.16698  -1.22867
C    -2.33940   1.53783  -0.63784
C    -2.47843   2.35224   0.50494
C    -3.77107   2.55366   1.08160
C    -4.88779   1.96365   0.49797
H    -5.86315   2.12588   0.93491
C    -4.77447   1.17665  -0.64295
C    -3.48756   0.95130  -1.22268
C    -1.37396   3.01888   1.09177
H    -0.39941   2.90570   0.64372
C    -1.52787   3.79779   2.19945
H    -0.67217   4.29262   2.63392
C    -2.79750   3.97084   2.78469
H    -2.89723   4.58893   3.66537
C    -3.88788   3.36905   2.23586
H    -4.87047   3.50272   2.66653
C    -3.41646   0.10932  -2.36209
H    -2.44924  -0.10596  -2.79083
C    -4.53347  -0.44371  -2.91220
H    -4.45386  -1.08089  -3.78123
C    -5.80221  -0.19920  -2.35138
H    -6.67631  -0.64631  -2.80146
C    -5.91411   0.58375  -1.24475
H    -6.87884   0.76821  -0.79381
N    -0.75222   1.71942  -2.38419
C    -1.54300   2.84985  -2.85457
H    -2.36269   2.51915  -3.49565
H    -0.91269   3.54161  -3.40653
H    -1.96415   3.37991  -2.00244
C     0.32222   1.30269  -3.31484
C     1.47455   2.30925  -3.24751
H     1.16832   3.30126  -3.56928
H     2.28476   1.98240  -3.89301
H     1.84079   2.37144  -2.22548
C     0.85465  -0.08898  -2.97629
H     1.26180  -0.11108  -1.95879
H     1.65652  -0.34114  -3.66514
H     0.07131  -0.83899  -3.07251
C    -0.24985   1.23763  -4.74053
H    -1.14527   0.62014  -4.77213
H     0.49244   0.78713  -5.39427
H    -0.48752   2.21789  -5.14214
Rh    0.00000   0.00000   0.00000
C    -0.94279  -1.88979  -0.37492
H    -1.39249  -1.89554  -1.36637
C    -1.65270  -1.21889   0.61707
H    -2.60326  -0.77808   0.32829
C    -1.58521  -1.49083   2.10008
H    -2.19736  -2.36998   2.33327
H    -2.03898  -0.63687   2.61167
C    -0.15365  -1.68275   2.62325
H    -0.12312  -1.40620   3.67937
H     0.14416  -2.73012   2.55397
C     0.83346  -0.83195   1.86107
H     1.21321   0.03293   2.40435
C     1.56245  -1.28778   0.78614
H     2.51090  -0.79857   0.56496
C     1.42770  -2.66030   0.16891
H     1.90697  -3.39596   0.82439
H     1.97959  -2.66373  -0.77464
C    -0.03215  -3.07125  -0.10368
H    -0.43294  -3.63511   0.74061
H    -0.05029  -3.73738  -0.96906
O     1.12133   1.20927   0.05274
