40

Zn    0.00000   0.00000   0.00000
Cl    0.51056   2.04723  -0.71773
N    -0.27197   0.39539   2.10285
C    -0.03198   1.60606   2.59136
C     0.03427   1.85961   3.94987
C    -0.15726   0.80483   4.82935
C    -0.41183  -0.45432   4.31437
C    -0.46016  -0.62512   2.93496
C    -0.67105  -1.98620   2.33437
H     0.33036  -2.38878   2.15188
H    -1.19365  -2.63533   3.05377
N    -1.92588  -0.13006  -0.92688
C    -2.12194   0.43703  -2.11155
C    -3.35268   0.44439  -2.73860
C    -4.42672  -0.15547  -2.09432
C    -4.22043  -0.74192  -0.86153
C    -2.94054  -0.73369  -0.31251
N    -1.35423  -1.93501   1.06234
C    -2.66196  -1.30330   1.05111
C    -1.25540  -2.99866   0.17318
N    -2.22313  -3.02807  -0.74050
C    -2.19589  -3.94449  -1.69291
C    -1.21178  -4.90770  -1.78465
C    -0.21360  -4.90027  -0.81694
C    -0.22917  -3.94940   0.18221
H     0.11358   2.38417   1.85477
H    -5.40769  -0.15905  -2.54588
H    -3.45280  -2.01893   1.31441
H    -3.01175  -3.89080  -2.40271
H    -2.66185  -0.48840   1.77976
H    -1.21977  -5.63730  -2.57805
H    -5.02825  -1.21907  -0.32946
H     0.23456   2.85658   4.30689
H     0.55749  -3.93391   0.91514
H    -0.56536  -1.29987   4.96714
H     0.57691  -5.63532  -0.84314
H    -3.46900   0.91445  -3.70150
H    -1.26168   0.92052  -2.55134
H    -0.11053   0.95933   5.89692
O     1.25447  -1.07156   0.02362
