39

Zr    0.00000   0.00000   0.00000
Cl   -1.26727  -1.65951   1.04692
Si    1.56449   2.92923   0.12254
C    -0.25844   2.43568  -0.01387
C    -0.89271   1.96796  -1.19544
H    -0.59528   2.21090  -2.20963
C    -2.05963   1.26035  -0.83378
H    -2.80184   0.86487  -1.51772
C    -2.15165   1.26389   0.57428
H    -2.98276   0.88257   1.15538
C    -1.03253   1.95421   1.08288
H    -0.88111   2.21816   2.12417
C     2.10154   1.16030   0.53656
C     1.69996   0.48675   1.72366
H     1.50549   0.96010   2.67980
C     1.78642  -0.90461   1.50921
H     1.66017  -1.66745   2.26839
C     2.20642  -1.12008   0.16943
C     2.38429   0.15243  -0.42719
H     2.78169   0.32325  -1.42257
C     2.51513  -2.45379  -0.46297
H     2.65850  -2.30113  -1.54084
C     1.35777  -3.43728  -0.26131
H     1.17403  -3.61024   0.79851
H     1.59537  -4.39213  -0.72626
H     0.44274  -3.05147  -0.71770
C     3.81265  -3.01811   0.12880
H     3.69541  -3.19484   1.19558
H     4.63181  -2.31723  -0.01541
H     4.07082  -3.95858  -0.35192
C     1.91621   4.17118   1.52270
H     2.98333   4.32497   1.63986
H     1.52488   3.83150   2.47584
H     1.46545   5.13312   1.30473
C     2.26526   3.49366  -1.55570
H     3.34123   3.61869  -1.50351
H     1.83900   4.44600  -1.85136
H     2.05072   2.77428  -2.34089
O    -0.06378  -0.62892  -1.52410
