42

Zn    0.00000   0.00000   0.00000
Br    2.19938  -0.15943  -0.93077
N    -0.33212  -1.95316   0.71646
N     0.20573  -3.90859  -2.39435
H    -0.62322  -4.49014  -2.23317
O    -0.10888   0.76288   1.68717
C    -0.19753  -1.23054   3.02709
C    -0.08352   0.18134   2.82756
C     0.04303   0.98602   3.99197
H     0.12949   2.05176   3.84000
C     0.06323   0.44964   5.24555
H     0.16759   1.09708   6.10534
C    -0.05295  -0.93776   5.44898
C    -0.18488  -1.73747   4.34728
H    -0.27766  -2.80904   4.47466
C    -0.36919  -2.17409   1.98654
H    -0.56994  -3.20163   2.32118
C    -0.62525  -3.03701  -0.18699
H    -1.46978  -2.71577  -0.80814
H    -0.92296  -3.94382   0.36444
C     0.58955  -3.32575  -1.08095
H     1.14128  -2.40081  -1.26220
H     1.26213  -4.01254  -0.56495
C    -0.21932  -2.85801  -3.37875
H    -0.88326  -2.15887  -2.86376
H    -0.79406  -3.35232  -4.16257
C     0.92415  -2.06809  -3.98758
H     1.58235  -1.64318  -3.23483
H     0.48453  -1.23302  -4.52517
H     1.51243  -2.64991  -4.69117
C     1.27401  -4.79555  -2.91769
H     1.52949  -5.51008  -2.13185
H     2.14956  -4.17777  -3.11847
C     0.84271  -5.55707  -4.16034
H    -0.07645  -6.11152  -3.98041
H     1.61843  -6.27096  -4.42283
H     0.69604  -4.89909  -5.01093
C    -0.03398  -1.49259   6.84168
H    -0.84537  -1.06635   7.43117
H     0.90393  -1.24338   7.33740
H    -0.14394  -2.57430   6.83126
O    -1.17365  -0.00648  -1.15975
