51

Mn    0.00000   0.00000   0.00000
O     0.18330   0.39581   1.67238
O     1.15928  -1.20476  -0.44237
O     1.05353   0.00386   4.14867
O     2.94713  -3.10482   0.04209
O     1.81142   1.46898  -0.27659
H     2.01560   1.77398   0.61497
H     2.54393   0.90504  -0.55035
N    -1.39525   1.50234  -0.06248
N    -0.50773   0.04459  -1.98798
C    -0.49786   0.89493   2.63141
C    -0.09672   0.72347   3.99647
C    -0.85700   1.25524   5.00462
H    -0.58208   1.11203   6.03748
C    -2.01547   1.99939   4.71221
H    -2.58872   2.40410   5.53187
C    -2.40569   2.21086   3.42463
H    -3.28873   2.79153   3.20469
C    -1.66401   1.67611   2.34453
C    -2.03983   1.91794   1.01297
H    -2.94358   2.50693   0.87456
C    -1.81387   1.89016  -1.32062
C    -2.62387   2.99046  -1.61459
H    -2.96826   3.64084  -0.82536
C    -2.95359   3.28448  -2.92041
H    -3.57169   4.14267  -3.13595
C    -2.47364   2.49734  -3.96070
H    -2.71998   2.74623  -4.98166
C    -1.66285   1.41384  -3.69795
H    -1.26294   0.84328  -4.52200
C    -1.32446   1.08687  -2.38201
C    -0.28161  -0.97085  -2.80167
H    -0.81100  -0.99594  -3.75144
C     0.59667  -2.04043  -2.56133
C     0.79638  -3.05620  -3.52617
H     0.23617  -3.00766  -4.44764
C     1.67506  -4.07177  -3.29929
H     1.81818  -4.84719  -4.03581
C     2.41922  -4.13207  -2.10608
H     3.10573  -4.95185  -1.96627
C     2.27176  -3.16901  -1.14273
C     1.32865  -2.10671  -1.33172
C     1.44071  -0.35267   5.45137
H     2.32840  -0.97286   5.33715
H     0.65910  -0.92757   5.95757
H     1.68965   0.52921   6.05210
C     3.77777  -4.18424   0.38692
H     4.15326  -3.96204   1.38458
H     4.62191  -4.27864  -0.30527
H     3.22082  -5.12598   0.41035
O    -1.20888  -1.09065   0.26753
