55

Mo    0.00000   0.00000   0.00000
Cl    0.27927   1.02905  -2.09742
N    -0.73281  -1.58970  -0.93394
N     1.62466  -1.05277  -0.36725
N     0.66623   1.65533   0.87231
N     0.20870  -0.56798   1.87462
C     0.19085  -2.38882  -1.50636
H    -0.08154  -3.20470  -2.16077
C     1.48551  -2.09904  -1.19551
H     2.32653  -2.67242  -1.55863
C     2.95707  -0.72519   0.10717
H     2.81061  -0.10168   1.00131
C     3.67714   0.10963  -0.95705
H     3.85674  -0.49194  -1.84597
H     4.62991   0.47119  -0.57817
H     3.05502   0.95953  -1.23845
C     3.79167  -1.94768   0.50690
H     3.18829  -2.64234   1.08756
H     4.63608  -1.62765   1.11227
H     4.18242  -2.46713  -0.36435
C    -2.11139  -1.91814  -1.29022
H    -2.75853  -1.29820  -0.66054
C    -2.37901  -1.54133  -2.75102
H    -2.11206  -0.49715  -2.91240
H    -3.43355  -1.67048  -2.98037
H    -1.79331  -2.15782  -3.43004
C    -2.46580  -3.38359  -1.01184
H    -2.02188  -4.05826  -1.73971
H    -3.54515  -3.50408  -1.05599
H    -2.12533  -3.66721  -0.01754
C     0.73260   1.60994   2.21812
H     0.96510   2.48215   2.81238
C     0.48337   0.39030   2.77239
H     0.52062   0.20180   3.83576
C     0.00244  -1.92220   2.35719
H     0.15339  -2.57593   1.48562
C    -1.44687  -2.06869   2.83249
H    -1.61780  -1.44436   3.70731
H    -1.66128  -3.10284   3.09046
H    -2.12611  -1.74632   2.04317
C     0.98672  -2.34996   3.45208
H     1.99635  -2.03667   3.19514
H     0.97114  -3.43262   3.54941
H     0.72208  -1.92392   4.41639
C     0.89224   2.98453   0.30820
H     0.94704   2.86334  -0.77895
C     2.21343   3.61165   0.76888
H     2.16456   3.96233   1.79706
H     2.44410   4.46319   0.13367
H     3.02073   2.88617   0.68372
C    -0.30007   3.89539   0.61890
H    -1.22104   3.41774   0.28579
H    -0.18990   4.84193   0.09608
H    -0.37779   4.09041   1.68673
O    -1.54042   0.48045   0.34463
