66

Pd    0.00000   0.00000   0.00000
C     0.37863  -1.60008   3.09620
C    -0.91263  -1.59126   3.61748
H    -1.75327  -1.68238   2.94046
C    -1.11125  -1.44884   4.97623
H    -2.11376  -1.43658   5.37792
C    -0.02187  -1.30891   5.82267
H    -0.17631  -1.19140   6.88523
C     1.26266  -1.30749   5.30657
H     2.11019  -1.18930   5.96618
C     1.46745  -1.44822   3.94450
H     2.47021  -1.43729   3.53981
C    -0.23536  -3.34038   0.94692
C    -0.87520  -3.50240  -0.27703
H    -0.87371  -2.67053  -0.97313
C    -1.47256  -4.70982  -0.59120
H    -1.96786  -4.83843  -1.54255
C    -1.43778  -5.75552   0.31745
H    -1.90595  -6.69828   0.07461
C    -0.80716  -5.59409   1.54121
H    -0.78521  -6.41013   2.24904
C    -0.20761  -4.38922   1.86139
H     0.27260  -4.25616   2.82158
C     2.31765  -1.95595   1.01673
C     3.02832  -0.79713   0.70553
H     2.48723   0.15601   0.63816
C     4.39106  -0.85917   0.48336
H     4.94474   0.03665   0.24234
C     5.04836  -2.07777   0.56360
H     6.11234  -2.12856   0.38422
C     4.34310  -3.23094   0.86482
H     4.85791  -4.17924   0.91902
C     2.97852  -3.17464   1.09301
H     2.42601  -4.07558   1.31925
O     0.65194  -0.99714  -1.64649
N    -0.44354   1.54293  -1.33717
C     0.23797   1.17842  -2.59775
H     1.29527   1.44312  -2.45665
C    -0.36966   1.97318  -3.76259
H    -1.00496   1.32971  -4.37376
H     0.41942   2.36114  -4.40862
C    -1.18768   3.12672  -3.17714
H    -1.49963   3.80980  -3.97279
C    -2.41661   2.58070  -2.43560
H    -2.84443   3.40337  -1.85167
C    -1.90627   1.48346  -1.47847
H    -2.34425   1.60441  -0.47905
H    -2.17561   0.48844  -1.85780
C    -0.05811   2.90971  -0.97277
H     1.00064   2.90867  -0.68603
H    -0.63969   3.19895  -0.09361
C    -0.31383   3.86289  -2.15624
H    -0.81397   4.76928  -1.81271
H     0.62469   4.16027  -2.62772
C     0.19725  -0.35289  -2.76667
H    -0.83337  -0.66696  -3.04459
H     0.84542  -0.62467  -3.62136
C    -3.51433   2.06926  -3.37132
H    -3.17136   1.18091  -3.90600
H    -3.73028   2.83931  -4.11644
C    -4.79566   1.73488  -2.61527
H    -4.62293   0.94998  -1.88319
H    -5.56444   1.39521  -3.30540
H    -5.16945   2.61246  -2.09246
P     0.53324  -1.73000   1.28965
O    -0.48331   0.88956   1.30292
