64

Ni    0.00000   0.00000   0.00000
P    -1.42631  -1.54102   0.75571
P    -1.76432   1.21868  -0.55111
C     1.62667  -0.80546   0.78350
H     1.51099  -1.83697   1.13218
H     2.47035  -0.74118   0.09340
C     1.72086   0.15567   1.89051
C     1.42605  -0.22699   3.20757
H     1.18150  -1.26011   3.41057
C     1.48234   0.68006   4.24634
H     1.25077   0.35796   5.25230
C     1.84243   1.99695   4.00636
H     1.87764   2.70716   4.81951
C     2.18222   2.38706   2.72015
H     2.49371   3.40420   2.52997
C     2.13148   1.48383   1.67684
H     2.42981   1.79563   0.68551
C    -1.39297  -2.51334   2.35499
H    -0.35984  -2.88386   2.41052
C    -1.63663  -1.58132   3.54316
H    -1.25891  -2.03198   4.45971
H    -2.70163  -1.40235   3.68071
H    -1.13606  -0.62417   3.40606
C    -2.32733  -3.71596   2.44079
H    -2.22020  -4.17866   3.42162
H    -2.09073  -4.46806   1.69295
H    -3.36712  -3.41509   2.32931
C    -1.46070  -2.88681  -0.55277
H    -0.84934  -3.69468  -0.12735
C    -0.75570  -2.36908  -1.80645
H    -0.56240  -3.18122  -2.50520
H     0.20625  -1.90863  -1.55014
H    -1.37436  -1.62804  -2.31093
C    -2.83433  -3.43286  -0.92968
H    -2.70734  -4.25567  -1.63237
H    -3.43023  -2.66817  -1.42435
H    -3.38786  -3.80808  -0.07336
C    -3.14149  -0.82605   0.79797
H    -3.89081  -1.61344   0.68759
H    -3.25598  -0.39881   1.79642
C    -3.33601   0.26745  -0.24851
H    -4.14414   0.94406   0.04347
H    -3.60478  -0.18602  -1.20700
C    -2.10138   2.01729  -2.20294
H    -1.24454   2.68314  -2.36355
C    -3.39353   2.82709  -2.25808
H    -3.48390   3.28711  -3.24107
H    -3.40907   3.62272  -1.51763
H    -4.26419   2.19149  -2.10745
C    -2.07165   0.97873  -3.32273
H    -2.15412   1.47729  -4.28653
H    -2.89820   0.27327  -3.24201
H    -1.12855   0.43682  -3.31218
C    -1.89520   2.65647   0.63218
H    -2.89892   3.09309   0.56193
C    -0.83702   3.69737   0.27504
H    -0.79737   4.47150   1.04024
H    -1.04577   4.17431  -0.67955
H     0.14539   3.22853   0.21787
C    -1.66311   2.15170   2.05414
H    -1.56742   2.98782   2.74583
H    -0.73464   1.57677   2.10197
H    -2.48467   1.52593   2.39686
O     0.85775   0.66827  -1.24103
