61

Ni    0.00000   0.00000   0.00000
P     1.43394   1.63095   0.76708
P    -1.26721   1.20300   1.48909
C     1.25757  -1.09825  -1.04943
C     2.25130  -1.61072  -0.09835
C     3.52005  -1.03017   0.01191
C     4.46289  -1.54441   0.87908
C     4.15913  -2.64118   1.67144
C     2.90963  -3.23321   1.57120
C     1.97081  -2.73395   0.69101
C     3.05907   2.02262   1.60995
C     3.23918   1.10628   2.81834
C     3.20489   3.48542   2.01626
C     1.31925   2.92754  -0.57451
C     2.48415   2.79144  -1.55179
C    -0.00652   2.73837  -1.31081
C     0.17284   2.27995   1.96867
C    -2.69225   2.40573   1.60097
C    -3.91479   1.85080   0.87423
C    -3.00939   2.86534   3.01877
C    -1.40158   0.07022   2.96393
C    -2.68041  -0.76069   2.88881
C    -0.18804  -0.85691   2.90142
H    -0.03657   3.34158   1.81435
H     0.47500   2.11393   3.00453
H    -3.43435   2.05816   3.60943
H    -2.11620   3.23246   3.52347
H    -4.38179   1.04956   1.43919
H    -3.63074   1.44946  -0.09786
H    -2.33660   3.27892   1.03279
H    -2.78543  -1.20579   1.89957
H    -2.64513  -1.56504   3.62269
H    -1.37735   0.65979   3.88978
H    -0.15918  -1.36095   1.92284
H     1.00517  -3.21261   0.59784
H     5.44219  -1.09041   0.94020
H     1.69517  -0.41381  -1.78958
H     3.84049   1.77199   0.88417
H     2.54399   1.36558   3.61599
H     2.49180   1.79746  -1.99616
H     1.33875   3.92413  -0.11476
H    -0.85469   3.00700  -0.68074
H     2.39945   3.78961   2.68261
H     0.75228  -1.91969  -1.56177
H     3.76696  -0.18140  -0.61273
H     4.89520  -3.03610   2.35610
H     2.67241  -4.09570   2.17729
H    -0.04329   3.35744  -2.20625
H    -0.12663   1.68938  -1.62741
H     2.38277   3.51778  -2.35724
H     3.44146   2.96134  -1.06308
H    -4.65338   2.63653   0.72338
H    -3.73682   3.67543   2.98682
H     0.74691  -0.31438   3.03911
H    -0.24595  -1.62979   3.66666
H     3.08689   0.06419   2.54036
H     4.24810   1.20365   3.21620
H     4.14624   3.62205   2.54730
H     3.21075   4.14631   1.15302
H    -3.56293  -0.16053   3.09436
O    -1.28792  -0.75678  -0.70075
