41

Pt    0.00000   0.00000   0.00000
S     2.11159  -0.15683  -0.89994
S     3.44775  -0.55948  -3.49649
S     0.83536   0.08821   2.06319
O    -0.94901  -0.05934  -1.77923
O    -4.68301  -0.45324  -6.73468
O     2.27960   0.02986   2.19544
C     1.96557  -0.34611  -2.58066
C     0.82378  -0.35700  -3.36608
H     0.99888  -0.52561  -4.41860
C    -0.50926  -0.20527  -2.96482
C    -1.55805  -0.24642  -4.00808
C    -1.33940   0.14627  -5.32508
H    -0.37642   0.52578  -5.62946
C    -2.35584   0.09708  -6.26047
H    -2.15069   0.41861  -7.26940
C    -3.62272  -0.35264  -5.89657
C    -3.85260  -0.73073  -4.56986
H    -4.84026  -1.06643  -4.29726
C    -2.84056  -0.66915  -3.64316
H    -3.02073  -0.95418  -2.61811
C    -4.52064  -0.08895  -8.08474
H    -5.48794  -0.26031  -8.55400
H    -3.76461  -0.70651  -8.57905
H    -4.25251   0.96709  -8.18590
C     4.76072  -0.52127  -2.22317
H     4.69591   0.44203  -1.71814
H     4.54439  -1.31621  -1.50999
C     6.11075  -0.71560  -2.88461
H     6.89274  -0.69206  -2.12931
H     6.29961   0.07373  -3.60829
H     6.15054  -1.67239  -3.39962
C     0.26437   1.55201   2.97314
H     0.64783   1.49757   3.98536
H    -0.81927   1.55180   2.94698
H     0.65866   2.42975   2.47167
C     0.13907  -1.20245   3.13371
H     0.53810  -1.07159   4.13281
H     0.44222  -2.16471   2.73422
H    -0.93995  -1.10196   3.10832
O    -1.47582   0.10793   0.72994
