69

Ni    0.00000   0.00000   0.00000
P     1.69689  -1.36179  -0.11380
P    -1.33052   1.72778   0.11419
Si    0.96822   0.84676   1.77134
C     0.30740   0.39574   3.53922
H     0.77677   1.07122   4.24799
H     0.55705  -0.61900   3.82955
H    -0.76683   0.51927   3.62304
C     2.77113   0.21940   1.83206
C     3.05428  -0.87238   1.01180
C     4.30019  -1.48347   1.08449
H     4.54277  -2.33346   0.46338
C     5.25348  -1.00891   1.96809
H     6.22063  -1.48817   2.02040
C     4.97065   0.07335   2.78535
H     5.71817   0.44015   3.47406
C     3.72748   0.67731   2.72014
H     3.50112   1.51143   3.36765
C     0.59755   2.72225   1.75966
C    -0.61245   3.04948   1.14685
C    -1.15391   4.31765   1.31215
H    -2.11810   4.56818   0.89437
C    -0.46067   5.27225   2.03616
H    -0.87936   6.26096   2.15916
C     0.76799   4.96532   2.59830
H     1.31131   5.71884   3.15044
C     1.28306   3.68623   2.47626
H     2.22468   3.43897   2.94400
C     0.12732  -2.79662   1.61708
H    -0.41825  -3.70839   1.85402
H    -0.60572  -2.02353   1.34507
H     0.66309  -2.46967   2.50706
C     1.09563  -3.02697   0.45975
H     0.51952  -3.41108  -0.39264
C     2.19051  -4.01565   0.83283
H     1.74170  -4.96937   1.10776
H     2.76497  -3.65340   1.68414
H     2.86904  -4.19098   0.00060
C     1.93475  -2.67910  -2.64577
H     2.50466  -2.73654  -3.57221
H     0.93441  -2.32578  -2.88436
H     1.86023  -3.68319  -2.23519
C     2.64054  -1.73009  -1.68444
H     3.58728  -2.18308  -1.36691
C     2.93989  -0.39514  -2.36272
H     3.66148  -0.52547  -3.16744
H     3.34600   0.32277  -1.64774
H     2.02609   0.01198  -2.79256
C    -3.23531   1.20420   2.00212
H    -4.27166   1.20058   2.33589
H    -2.65104   1.81328   2.69269
H    -2.86241   0.17995   2.03727
C    -3.12824   1.74738   0.58005
H    -3.45674   2.79402   0.56737
C    -3.97694   0.93026  -0.38667
H    -5.01586   0.93215  -0.05990
H    -3.63279  -0.10082  -0.42579
H    -3.93446   1.33661  -1.39458
C    -1.91067   3.79039  -1.83522
H    -1.86283   4.03591  -2.89555
H    -1.39460   4.57582  -1.28685
H    -2.95825   3.77793  -1.54208
C    -1.24682   2.44022  -1.60924
H    -1.73277   1.68736  -2.24467
C     0.23977   2.48428  -1.96071
H     0.38808   2.69164  -3.01904
H     0.70195   1.51251  -1.73118
H     0.75377   3.24870  -1.37735
O    -0.84550  -0.78157  -1.18186
