27

C     2.28919   2.21258  -1.10278
C     3.89469   2.05987  -2.76126
C     3.91532   3.48359  -2.16932
Hg    0.00000   0.00000   0.00000
H     4.83138   3.66682  -1.59444
H     3.82399   4.25510  -2.93743
H     4.88016   1.58911  -2.74858
H     3.51922   2.05816  -3.79103
H     2.64660   0.41987  -2.04188
H     2.53944   4.22322  -0.67696
N     2.75116   3.47350  -1.31133
N     2.98517   1.36550  -1.87889
O     1.38274   1.93102  -0.31678
Cl    1.11321  -1.09264  -1.66421
O    -1.38278  -1.93108   0.31689
C    -2.28926  -2.21267   1.10286
N    -2.75122  -3.47361   1.31138
N    -2.98530  -1.36562   1.87895
C    -3.91540  -3.48374   2.16934
H    -2.53946  -4.22333   0.67702
C    -3.89483  -2.06002   2.76128
H    -2.64679  -0.41998   2.04195
H    -4.83145  -3.66700   1.59445
H    -3.82408  -4.25524   2.93746
H    -4.88033  -1.58932   2.74856
H    -3.51942  -2.05833   3.79108
O    -0.80557   0.79010   1.20387
