55

Zn    0.00000   0.00000   0.00000
O     1.53223   3.08884  -2.58862
N     1.10840   1.47020  -1.12184
C     0.02236   1.67966  -4.51779
H     1.01249   1.95510  -4.84674
C    -0.95441   1.34594  -5.43546
H    -0.72719   1.36307  -6.49058
C    -2.22534   1.00361  -5.00297
H    -2.99069   0.75083  -5.72171
C    -2.51946   1.00876  -3.64998
H    -3.52032   0.78102  -3.31482
C    -1.54518   1.33111  -2.72256
H    -1.79855   1.38423  -1.67735
C    -0.26337   1.65404  -3.15412
C     0.79639   2.03987  -2.22248
C     2.45435   3.34936  -1.53661
H     2.20063   4.31392  -1.08656
H     3.46014   3.39945  -1.95829
C     2.27074   2.16649  -0.55160
C     1.97722   2.64067   0.86787
H     2.80446   3.24850   1.22634
H     1.86674   1.79046   1.53769
H     1.06426   3.23222   0.90028
C     3.49505   1.25114  -0.57462
H     4.35874   1.79929  -0.20635
H     3.69526   0.91270  -1.58930
H     3.34655   0.38359   0.06089
Br    1.53971  -1.40122   1.12834
N    -1.10840  -1.47020  -1.12184
C    -0.79639  -2.03987  -2.22248
O    -1.53223  -3.08884  -2.58862
C    -2.45435  -3.34936  -1.53661
H    -2.20063  -4.31392  -1.08656
H    -3.46014  -3.39945  -1.95829
C    -2.27074  -2.16649  -0.55160
C    -1.97722  -2.64067   0.86788
H    -2.80446  -3.24850   1.22634
H    -1.86674  -1.79046   1.53769
H    -1.06426  -3.23222   0.90028
C    -3.49505  -1.25114  -0.57461
H    -4.35874  -1.79929  -0.20634
H    -3.69526  -0.91270  -1.58930
H    -3.34656  -0.38359   0.06089
C     0.26338  -1.65404  -3.15412
C    -0.02236  -1.67965  -4.51778
H    -1.01249  -1.95509  -4.84674
C     0.95441  -1.34593  -5.43546
H     0.72720  -1.36305  -6.49057
C     2.22534  -1.00360  -5.00297
H     2.99069  -0.75083  -5.72170
C     2.51947  -1.00876  -3.64997
H     3.52032  -0.78104  -3.31482
C     1.54518  -1.33112  -2.72255
H     1.79855  -1.38424  -1.67735
O    -1.07287   0.97637   0.78622
