43

Zn    0.00000   0.00000   0.00000
I    -1.07398  -1.95422  -1.18711
O     4.19867  -0.89039   0.86505
O    -0.56947  -0.51008   4.27581
N     2.12889  -0.41990   0.19794
N    -0.59513  -0.14564   2.08084
C     1.26353  -2.75635   1.89974
H     0.62945  -2.62343   1.04145
C     0.90073  -3.64756   2.89206
H    -0.03541  -4.18031   2.81363
C     1.74154  -3.87120   3.96983
H     1.45366  -4.56515   4.74538
C     2.96218  -3.21789   4.04137
H     3.62812  -3.40545   4.87013
C     3.33116  -2.32517   3.05428
H     4.27788  -1.81028   3.10406
C     2.47236  -2.07167   1.98387
C     2.88374  -1.10225   0.97588
C     4.40237   0.07955  -0.15909
H     5.03036  -0.36376  -0.93545
H     4.91645   0.93970   0.27723
C     2.98010   0.40791  -0.64213
H     2.72961   1.46147  -0.50739
H     2.81692   0.14803  -1.69164
C     2.14873   0.13581   4.42128
H     1.78705  -0.65295   5.06258
C     3.40711   0.67502   4.60561
H     4.03588   0.30641   5.40176
C     3.86115   1.68616   3.77324
H     4.84794   2.10074   3.91590
C     3.04041   2.17891   2.77192
H     3.37573   2.99063   2.14354
C     1.78011   1.64420   2.58022
H     1.12702   2.06167   1.83377
C     1.33655   0.60093   3.38768
C     0.03033  -0.01532   3.19016
C    -1.81645  -1.06922   3.86810
H    -2.61556  -0.57422   4.42359
H    -1.81166  -2.13480   4.11015
C    -1.86711  -0.79482   2.35524
H    -1.96128  -1.70993   1.76849
H    -2.68137  -0.12216   2.07223
O    -0.13191   1.57538  -0.47252
