43

Zn    0.00000   0.00000   0.00000
Br    0.99657  -1.74375  -1.21948
O     1.96723   0.09016   3.85212
O    -3.13964  -1.13028   2.73022
N     1.26991   0.19705   1.74234
N    -1.78155  -0.64847   1.03540
C    -0.89587   2.02191   2.77124
H    -0.55797   2.32764   1.79576
C    -2.04406   2.57753   3.30601
H    -2.61049   3.28777   2.72244
C    -2.45754   2.23296   4.58305
H    -3.35966   2.66149   4.99418
C    -1.70105   1.35353   5.34258
H    -2.00857   1.10338   6.34707
C    -0.55089   0.79678   4.81796
H     0.04889   0.11549   5.40148
C    -0.15753   1.10494   3.51487
C     1.03291   0.46102   2.97320
C     3.02879  -0.52862   3.12685
H     3.12673  -1.55984   3.47627
H     3.95173   0.01703   3.33444
C     2.57920  -0.43154   1.65945
H     3.23728   0.19395   1.05056
H     2.49663  -1.40821   1.18024
C    -1.03240  -2.22015   4.21164
H    -1.81309  -1.70161   4.74638
C    -0.08982  -2.97072   4.88695
H    -0.12957  -3.04024   5.96384
C     0.90284  -3.63719   4.18465
H     1.64053  -4.21945   4.71684
C     0.93340  -3.57470   2.80072
H     1.68370  -4.11813   2.24630
C    -0.00357  -2.82155   2.11666
H     0.00078  -2.81159   1.03996
C    -0.97505  -2.11572   2.82133
C    -1.95153  -1.27525   2.13961
C    -3.93043  -0.26697   1.91394
H    -4.18087   0.62215   2.49878
H    -4.84638  -0.79496   1.64078
C    -3.02117   0.04078   0.71227
H    -3.41082  -0.35280  -0.23046
H    -2.83714   1.10869   0.58640
O    -0.42264   1.47139  -0.61555
