46

Pt    0.00000   0.00000   0.00000
Cl   -1.58566  -1.30433   1.12197
N    -1.56941   1.07706  -0.61869
C    -2.12584   2.08504  -0.00385
C    -3.23921   1.60916  -2.14309
S    -3.47783   2.78134  -0.87742
C    -3.94247   1.43578  -3.32346
H    -4.77131   2.08058  -3.56795
C    -3.54783   0.41719  -4.16906
H    -4.08033   0.26395  -5.09504
C    -2.47594  -0.41589  -3.84874
H    -2.19517  -1.20206  -4.53209
C    -1.77295  -0.24911  -2.67588
H    -0.93624  -0.88408  -2.40437
C    -2.15683   0.77603  -1.81366
C    -1.72853   2.61553   1.25249
S    -0.34108   2.01291   2.09793
C    -0.61099   3.11632   3.37724
H     0.05418   3.12273   4.21788
C    -1.70374   3.90809   3.17057
H    -2.03571   4.66108   3.86211
C    -2.34372   3.62856   1.95822
H    -3.22360   4.13584   1.60405
C     1.71215  -0.71399   1.09137
H     2.39827   0.13652   1.07002
C     1.58739  -1.47007  -0.06619
H     2.18823  -1.17543  -0.93122
C     1.11778  -2.90126  -0.10720
H     0.71746  -3.10976  -1.10327
H     0.32070  -3.07618   0.61500
C     2.26370  -3.88906   0.16097
H     3.11746  -3.63777  -0.47262
H     1.91557  -4.88135  -0.13497
C     2.71893  -3.96416   1.62019
H     1.84945  -4.10759   2.26280
H     3.33670  -4.86000   1.71685
C     3.53097  -2.75257   2.10073
H     3.88768  -2.19154   1.23623
H     4.41447  -3.10412   2.63864
C     2.77737  -1.81068   3.04177
H     3.43752  -0.97446   3.28422
H     2.55028  -2.33439   3.97246
C     1.46274  -1.26273   2.46604
H     0.71280  -2.05019   2.43766
H     1.09557  -0.47413   3.12688
O     0.93490   1.06385  -0.84656
