51

P    -0.38520  -0.14861   2.05296
Ni    0.00000   0.00000   0.00000
N     2.18750  -0.58936   0.47722
Cl    0.39626   2.01505   0.15682
O     0.92541  -0.31002   2.95957
O     4.14449   0.07373   1.31126
C    -1.24556  -1.62267   2.67473
C    -2.60120  -1.58787   2.97113
H    -3.15136  -0.66241   2.87466
C    -3.24425  -2.74075   3.38828
H    -4.29867  -2.71196   3.62090
C    -2.54064  -3.92799   3.50003
H    -3.04668  -4.82699   3.82004
C    -1.19014  -3.96628   3.18877
H    -0.64520  -4.89597   3.26152
C    -0.54471  -2.81898   2.76951
H     0.49990  -2.83812   2.49665
C    -1.34784   1.20892   2.79357
C    -1.18540   1.54871   4.12931
H    -0.45858   1.01904   4.72770
C    -1.95545   2.55938   4.67679
H    -1.82536   2.83408   5.71351
C    -2.89419   3.21738   3.89823
H    -3.49204   4.00686   4.32912
C    -3.06787   2.86623   2.56878
H    -3.80181   3.37819   1.96456
C    -2.29250   1.86398   2.01537
H    -2.40161   1.58674   0.97287
C     2.24661   0.21168   2.81449
C     3.07269  -0.49955   3.89128
H     3.00851  -1.57628   3.75570
H     2.68047  -0.24805   4.87284
H     4.11061  -0.18875   3.82202
C     2.27560   1.72676   3.00982
H     1.89846   1.97531   3.99848
H     1.65136   2.20640   2.25796
H     3.29613   2.08630   2.91099
C     2.82494  -0.12380   1.46582
C     4.45928  -0.29612  -0.03236
H     5.23020  -1.06974  -0.00626
H     4.84302   0.58458  -0.55367
C     3.11735  -0.80559  -0.62601
C     2.63600   0.00778  -1.82538
H     1.58640  -0.24505  -2.01443
H     3.21639  -0.22683  -2.71401
H     2.70325   1.07449  -1.61852
C     3.13680  -2.29771  -0.95317
H     2.12562  -2.62042  -1.19050
H     3.48726  -2.87041  -0.09708
H     3.78692  -2.48963  -1.80308
O    -0.57483  -1.50620  -0.35131
