67

Cu    0.00000   0.00000   0.00000
C     0.80436   2.28359   2.26588
N     0.35289   1.01072   2.71237
C    -0.13716   3.27195   1.97537
C     0.32753   4.50207   1.52974
H    -0.37586   5.28268   1.28667
C     1.68064   4.73507   1.37933
H     2.02448   5.69533   1.02511
C     2.59617   3.74044   1.66540
H     3.64806   3.93172   1.52518
C     2.17623   2.49686   2.11645
C    -1.61934   3.00786   2.09137
H    -1.77489   2.03589   2.56997
C    -2.31559   4.06516   2.95047
H    -3.35854   3.79371   3.09734
H    -1.83783   4.14171   3.92533
H    -2.28466   5.04149   2.47508
C    -2.23363   2.94304   0.69093
H    -2.12497   3.89495   0.17785
H    -3.29195   2.70135   0.75431
H    -1.73651   2.17563   0.09786
C     3.17061   1.38847   2.36935
H     2.67753   0.58472   2.92565
C     4.36396   1.85783   3.20279
H     4.98088   2.56042   2.64987
H     4.98415   1.00515   3.47012
H     4.02643   2.33985   4.11813
C     3.62968   0.81917   1.02398
H     4.14003   1.58213   0.44164
H     2.77222   0.46791   0.45035
H     4.31102  -0.01411   1.17936
C    -0.00000   0.00000   1.89141
C     0.22329   0.63903   4.02432
H     0.45578   1.30486   4.82934
C    -0.22330  -0.63901   4.02432
N    -0.35289  -1.01070   2.71237
C    -0.80436  -2.28358   2.26589
C     0.13716  -3.27194   1.97539
C    -0.32752  -4.50206   1.52976
H     0.37586  -5.28267   1.28668
C    -1.68064  -4.73506   1.37934
H    -2.02448  -5.69532   1.02513
C    -2.59617  -3.74044   1.66541
H    -3.64806  -3.93172   1.52520
C    -2.17623  -2.49686   2.11646
C    -3.17062  -1.38846   2.36935
H    -2.67754  -0.58471   2.92565
C    -4.36397  -1.85782   3.20279
H    -4.98089  -2.56041   2.64987
H    -4.98415  -1.00514   3.47012
H    -4.02644  -2.33984   4.11813
C    -3.62968  -0.81917   1.02398
H    -4.14003  -1.58213   0.44164
H    -2.77222  -0.46791   0.45035
H    -4.31102   0.01411   1.17935
C     1.61934  -3.00783   2.09138
H     1.77488  -2.03585   2.56997
C     2.31557  -4.06517   2.95045
H     3.35852  -3.79371   3.09733
H     1.83783  -4.14172   3.92532
H     2.28466  -5.04152   2.47506
C     2.23362  -2.94303   0.69094
H     2.12496  -3.89494   0.17787
H     3.29194  -2.70134   0.75431
H     1.73650  -2.17562   0.09787
H    -0.45579  -1.30484   4.82935
O     0.00000  -0.00000  -1.65000
