70

Cu    0.00000   0.00000   0.00000
Cl    2.06625   0.00326  -2.91504
Cl   -0.94084   1.59577  -2.66581
P     1.78465  -1.28564  -0.29550
P    -1.85725  -0.69754  -1.06400
C     2.04490  -2.37491  -1.73239
C     2.12857  -1.71738  -2.96030
C     2.25335  -2.41127  -4.14744
H     2.31336  -1.87978  -5.08408
C     2.29411  -3.79641  -4.10807
H     2.39185  -4.35138  -5.02883
C     2.21014  -4.46774  -2.89864
H     2.24440  -5.54686  -2.87729
C     2.08122  -3.76418  -1.71334
H     2.01108  -4.28951  -0.77107
C     3.44929  -0.60333  -0.03420
C     3.53606   0.58045   0.69240
H     2.63461   1.04876   1.06387
C     4.77059   1.15414   0.93491
H     4.83346   2.07173   1.50019
C     5.91874   0.55355   0.44512
H     6.88356   1.00329   0.62774
C     5.83328  -0.62293  -0.28313
H     6.73010  -1.08910  -0.66522
C     4.60330  -1.20621  -0.52519
H     4.53784  -2.12528  -1.09224
C     1.60723  -2.48162   1.06262
C     0.39720  -3.17320   1.11338
H    -0.33231  -3.02914   0.32262
C     0.12127  -4.02779   2.16122
H    -0.82122  -4.55520   2.19172
C     1.05097  -4.18970   3.17714
H     0.83569  -4.85025   4.00377
C     2.24919  -3.49612   3.13920
H     2.96796  -3.61688   3.93631
C     2.52991  -2.63851   2.08960
H     3.45997  -2.08795   2.06972
C    -2.92958   0.76531  -1.10840
C    -2.41578   1.85507  -1.81292
C    -3.05411   3.07820  -1.82525
H    -2.63031   3.90771  -2.36912
C    -4.23256   3.21955  -1.10932
H    -4.73498   4.17435  -1.09868
C    -4.75762   2.15091  -0.40180
H    -5.67218   2.27290   0.15819
C    -4.10912   0.92834  -0.39249
H    -4.51127   0.10161   0.17528
C    -2.05787  -1.42962  -2.72034
C    -1.25212  -2.52821  -3.00754
H    -0.58597  -2.91448  -2.24541
C    -1.30225  -3.12577  -4.25171
H    -0.67428  -3.97877  -4.46400
C    -2.15184  -2.62111  -5.22296
H    -2.18818  -3.08034  -6.19974
C    -2.95483  -1.52747  -4.94206
H    -3.61915  -1.13691  -5.69917
C    -2.91254  -0.92921  -3.69568
H    -3.54428  -0.07846  -3.47995
C    -2.81016  -1.84129  -0.01490
C    -2.73875  -1.61147   1.35894
H    -2.17940  -0.76237   1.72984
C    -3.37887  -2.45848   2.24199
H    -3.32119  -2.27083   3.30377
C    -4.08444  -3.55072   1.76112
H    -4.58056  -4.21925   2.44935
C    -4.15135  -3.78765   0.39794
H    -4.70172  -4.63878   0.02346
C    -3.51606  -2.93955  -0.49233
H    -3.57098  -3.13029  -1.55525
O    -0.21939   1.22006   1.08895
