70

Br    2.43103   0.23830  -2.99370
Br   -1.23309   1.59307  -2.82314
Cu    0.00000   0.00000   0.00000
P     1.78422  -1.28342  -0.35693
P    -1.95839  -0.72263  -0.84050
C     2.20775  -2.32771  -1.79493
C     2.45855  -1.66627  -2.99685
C     2.72425  -2.35525  -4.16463
H     2.91256  -1.81398  -5.07867
C     2.73791  -3.74025  -4.13998
H     2.93969  -4.28797  -5.04785
C     2.49760  -4.41788  -2.95525
H     2.51744  -5.49727  -2.93609
C     2.23230  -3.71884  -1.79095
H     2.04653  -4.25249  -0.86950
C     3.43045  -0.67773   0.12459
C     3.51779   0.60307   0.65917
H     2.62509   1.20417   0.76812
C     4.74632   1.10312   1.05147
H     4.81132   2.09639   1.46875
C     5.88587   0.33044   0.90297
H     6.84657   0.72170   1.20351
C     5.79983  -0.94531   0.36620
H     6.69084  -1.54550   0.25080
C     4.57596  -1.45477  -0.02398
H     4.50581  -2.45109  -0.44079
C     1.39593  -2.50788   0.92981
C     0.26068  -3.29636   0.73767
H    -0.27942  -3.23805  -0.20187
C    -0.17841  -4.14443   1.73412
H    -1.05616  -4.75327   1.57393
C     0.49885  -4.19577   2.94272
H     0.15014  -4.85053   3.72726
C     1.61313  -3.39975   3.14798
H     2.13290  -3.43080   4.09405
C     2.06186  -2.55341   2.14917
H     2.92251  -1.92143   2.31747
C    -3.09352   0.69957  -0.86693
C    -2.75265   1.77055  -1.69191
C    -3.48618   2.93992  -1.70804
H    -3.19280   3.75321  -2.35370
C    -4.58483   3.05447  -0.87252
H    -5.15626   3.96976  -0.86773
C    -4.94049   2.00463  -0.04202
H    -5.79483   2.09749   0.61103
C    -4.19916   0.83669  -0.03397
H    -4.47383   0.02517   0.62459
C    -2.29741  -1.50568  -2.45319
C    -1.25719  -2.21128  -3.04665
H    -0.30241  -2.27515  -2.53865
C    -1.43393  -2.81406  -4.27749
H    -0.61890  -3.35814  -4.73253
C    -2.65397  -2.70646  -4.92440
H    -2.79511  -3.16843  -5.89014
C    -3.69340  -2.00082  -4.33826
H    -4.64277  -1.91660  -4.84670
C    -3.52128  -1.39899  -3.10553
H    -4.33132  -0.84666  -2.64758
C    -2.76393  -1.85144   0.33718
C    -2.64146  -1.52785   1.68859
H    -2.14067  -0.61326   1.97998
C    -3.16318  -2.36731   2.65326
H    -3.07032  -2.10757   3.69701
C    -3.79632  -3.54229   2.27857
H    -4.20212  -4.20135   3.03195
C    -3.90320  -3.87613   0.93835
H    -4.39117  -4.79508   0.64610
C    -3.38525  -3.03855  -0.03380
H    -3.46519  -3.30675  -1.07851
O    -0.13564   1.13801   1.18703
