70

Br    2.44712   0.44810  -2.76414
Br   -1.29765   1.60355  -2.86098
Cu    0.00000   0.00000   0.00000
P     1.82961  -1.22085  -0.19000
P    -2.00645  -0.63196  -0.79670
C     2.23761  -2.17396  -1.68960
C     2.45466  -1.45282  -2.86385
C     2.67531  -2.08394  -4.07333
H     2.83885  -1.49738  -4.96359
C     2.67420  -3.46838  -4.12080
H     2.84030  -3.96963  -5.06213
C     2.46201  -4.20474  -2.96598
H     2.46645  -5.28377  -3.00402
C     2.24163  -3.56417  -1.75953
H     2.07262  -4.14119  -0.86158
C     3.43168  -0.52129   0.29807
C     3.38968   0.66079   1.03149
H     2.43004   1.10701   1.26419
C     4.56867   1.25266   1.44575
H     4.53936   2.16996   2.01427
C     5.78427   0.67236   1.12054
H     6.70591   1.13828   1.43687
C     5.82486  -0.50182   0.38453
H     6.77525  -0.94864   0.13075
C     4.65146  -1.10467  -0.02980
H     4.67864  -2.02116  -0.60474
C     1.53661  -2.52784   1.04033
C     0.33275  -3.22369   0.92920
H    -0.32482  -3.01456   0.09180
C    -0.02412  -4.16129   1.87678
H    -0.96036  -4.69188   1.78342
C     0.81511  -4.40345   2.95397
H     0.53483  -5.12947   3.70256
C     2.00590  -3.70734   3.07640
H     2.65414  -3.89120   3.92062
C     2.36875  -2.76740   2.12685
H     3.29232  -2.21582   2.23201
C    -3.12881   0.79458  -0.85001
C    -2.78812   1.83809  -1.70843
C    -3.50592   3.01648  -1.74344
H    -3.21440   3.80803  -2.41660
C    -4.58692   3.16826  -0.89044
H    -5.14631   4.09125  -0.89982
C    -4.94024   2.14655  -0.02436
H    -5.77973   2.27049   0.64312
C    -4.21477   0.96875   0.00125
H    -4.48389   0.17952   0.68870
C    -2.35141  -1.47983  -2.37369
C    -1.31667  -2.23518  -2.91433
H    -0.37136  -2.28729  -2.38698
C    -1.48964  -2.89757  -4.11452
H    -0.67991  -3.47978  -4.52989
C    -2.69895  -2.80020  -4.78352
H    -2.83679  -3.30952  -5.72567
C    -3.73119  -2.04385  -4.25084
H    -4.67128  -1.96733  -4.77743
C    -3.56328  -1.38190  -3.04834
H    -4.36722  -0.78945  -2.63178
C    -2.78938  -1.71742   0.43341
C    -2.58847  -1.36470   1.76833
H    -2.03773  -0.46072   2.00058
C    -3.08712  -2.16530   2.77726
H    -2.93523  -1.88724   3.80952
C    -3.77290  -3.32882   2.46236
H    -4.15916  -3.95818   3.25086
C    -3.95744  -3.69027   1.13794
H    -4.48645  -4.60056   0.89401
C    -3.46512  -2.89125   0.12045
H    -3.60518  -3.17924  -0.91246
O    -0.28023   1.17635   1.12258
