70

Br    2.13500  -0.17756  -3.39640
Br   -1.18616   1.87710  -2.59299
Cu    0.00000   0.00000   0.00000
P     1.66769  -1.39736  -0.58433
P    -1.95161  -0.62402  -0.87183
C     2.20100  -2.57690  -1.88110
C     2.40174  -2.04902  -3.15496
C     2.78755  -2.83943  -4.22004
H     2.93345  -2.39948  -5.19455
C     2.97930  -4.19586  -4.01362
H     3.27634  -4.82453  -4.83926
C     2.79340  -4.74071  -2.75341
H     2.95214  -5.79665  -2.59295
C     2.40596  -3.93923  -1.69372
H     2.26219  -4.37182  -0.71350
C     3.30014  -0.74446  -0.11875
C     3.47280   0.63354  -0.07546
H     2.64761   1.28600  -0.32753
C     4.69575   1.16285   0.29604
H     4.82530   2.23333   0.33992
C     5.74537   0.31805   0.61383
H     6.70024   0.72983   0.90554
C     5.57683  -1.05776   0.56110
H     6.39886  -1.71380   0.80818
C     4.35776  -1.59407   0.19515
H     4.21894  -2.66665   0.15749
C     1.23665  -2.48764   0.80256
C     0.23768  -3.44273   0.61117
H    -0.16135  -3.61613  -0.38192
C    -0.24628  -4.16886   1.68159
H    -1.01303  -4.91306   1.52217
C     0.23640  -3.92457   2.95733
H    -0.15229  -4.48362   3.79538
C     1.20366  -2.95366   3.15919
H     1.56566  -2.74671   4.15503
C     1.70200  -2.23319   2.08917
H     2.44164  -1.46167   2.25225
C    -3.10474   0.77810  -0.80417
C    -2.75019   1.92833  -1.50909
C    -3.50382   3.08342  -1.44270
H    -3.20207   3.95804  -1.99784
C    -4.63530   3.10200  -0.64379
H    -5.22427   4.00359  -0.57676
C    -5.00279   1.97322   0.07039
H    -5.88294   1.99172   0.69496
C    -4.24225   0.82004  -0.00389
H    -4.52734  -0.05562   0.56172
C    -2.22987  -1.29968  -2.54014
C    -1.21813  -2.10357  -3.05406
H    -0.34188  -2.30047  -2.44631
C    -1.32331  -2.63819  -4.32293
H    -0.53049  -3.25915  -4.71520
C    -2.44420  -2.36315  -5.08938
H    -2.52919  -2.77067  -6.08565
C    -3.45472  -1.56114  -4.58284
H    -4.32618  -1.34772  -5.18435
C    -3.35396  -1.02642  -3.31143
H    -4.14260  -0.39849  -2.91837
C    -2.74395  -1.85051   0.21030
C    -2.61573  -1.63228   1.58186
H    -2.10937  -0.74372   1.93705
C    -3.13447  -2.54196   2.48156
H    -3.03534  -2.36441   3.54187
C    -3.76988  -3.68398   2.01873
H    -4.17176  -4.39995   2.72051
C    -3.88377  -3.91287   0.65724
H    -4.37488  -4.80593   0.29785
C    -3.37042  -3.00274  -0.24997
H    -3.45892  -3.18542  -1.31252
O     0.17697   0.96867   1.32396
