47

Pt    0.00000   0.00000   0.00000
Cl    0.71598  -2.12241   0.65846
O     0.90417   0.18080  -2.65736
H     1.05697   1.10143  -2.92798
O    -0.26188  -0.03886  -4.55048
N    -2.73654  -1.94625  -2.29875
N    -3.41893  -1.45856  -1.29141
N    -2.68618  -0.79099  -0.45211
N    -1.47661  -0.83188  -0.91071
C    -1.50221  -1.55330  -2.05558
C    -0.31663  -1.81267  -2.90566
H    -0.58360  -2.50774  -3.69913
H     0.49467  -2.19684  -2.28281
C     0.10390  -0.46844  -3.49422
C    -4.84265  -1.62225  -1.14614
H    -5.09107  -1.16852  -0.18196
C    -5.53584  -0.87792  -2.28302
H    -5.22995  -1.29559  -3.23903
H    -5.27609   0.17777  -2.26171
H    -6.61307  -0.97294  -2.18373
C    -5.17168  -3.11038  -1.14940
H    -4.66223  -3.61800  -0.33387
H    -4.85700  -3.55483  -2.09010
H    -6.24200  -3.25123  -1.03207
O    -0.90382  -0.18086   2.65741
H    -1.05701  -1.10152   2.92776
O     0.26233   0.03781   4.55059
N     2.73744   1.94531   2.29862
N     3.41936   1.45780   1.29090
N     2.68617   0.79070   0.45161
N     1.47679   0.83165   0.91067
C     1.50293   1.55267   2.05577
C     0.31773   1.81210   2.90634
H     0.58518   2.50671   3.70006
H    -0.49360   2.19688   2.28391
C    -0.10328   0.46782   3.49445
C     4.84304   1.62142   1.14507
H     5.09106   1.16737   0.18095
C     5.53670   0.87750   2.28191
H     5.23116   1.29556   3.23787
H     5.27691  -0.17819   2.26110
H     6.61389   0.97250   2.18215
C     5.17206   3.10956   1.14760
H     4.66221   3.61687   0.33212
H     4.85781   3.55431   2.08828
H     6.24233   3.25037   1.02974
O    -0.50595   1.50000  -0.46531
