39

Au    0.00000   0.00000   0.00000
P     1.70920  -0.21830  -1.43704
O     0.23981  -0.42431  -8.08589
O    -0.66612   1.51860  -7.47058
H    -0.90439   1.56275  -8.40978
C     1.23140  -0.10397  -3.18333
C     0.51385   1.03541  -3.54846
H     0.28522   1.77724  -2.79336
C     0.10440   1.21000  -4.85353
H    -0.44631   2.09000  -5.14606
C     0.40310   0.23474  -5.80427
C     1.09966  -0.91325  -5.43339
H     1.30937  -1.65635  -6.18812
C     1.51245  -1.08702  -4.12676
H     2.05355  -1.97711  -3.83806
C    -0.00169   0.38213  -7.22339
C     2.99503   1.05095  -1.28965
C     3.73868   1.49790  -2.37840
H     3.54954   1.09657  -3.36487
C     4.71432   2.45997  -2.18991
H     5.29126   2.80912  -3.03345
C     4.95133   2.97577  -0.92534
H     5.71216   3.72898  -0.78606
C     4.21048   2.53251   0.15888
H     4.39178   2.93838   1.14258
C     3.23070   1.57373  -0.02159
H     2.63367   1.22661   0.81244
C     3.83148  -4.26298  -1.10841
H     4.31250  -5.22578  -1.02337
C     2.46331  -4.15428  -0.91248
H     1.87742  -5.02925  -0.67485
C     1.84988  -2.91969  -1.01213
H     0.78471  -2.81394  -0.84717
C     2.60473  -1.79054  -1.32093
C     3.97820  -1.89972  -1.51182
H     4.56596  -1.02103  -1.73812
C     4.58523  -3.13850  -1.40456
H     5.65165  -3.22585  -1.55065
O    -1.24335   0.16834   1.07157
