66

Pd    0.00000   0.00000   0.00000
O     3.54107   1.30127   6.01888
N     1.50422  -1.31133  -0.68069
C     1.68072   0.79050  -2.68564
H     1.04933   1.08145  -1.81177
H     1.36362   1.39926  -3.53476
C     2.62596  -1.52394  -0.10524
C     0.75672  -3.28423  -3.69033
H     0.46328  -4.28481  -3.96222
C     2.52945   1.57393   5.41822
H     1.66599   2.02110   5.95188
C     2.70210   0.14496   3.34850
C     2.85083  -1.23246   1.31937
C     3.75515  -2.04019   1.98913
H     4.19002  -2.88665   1.48245
N     1.22123   0.56810   1.48943
C     3.60599  -0.72990   3.98117
H     3.91708  -0.52063   4.99104
C     0.94480  -2.34020  -4.68472
H     0.81463  -2.61732  -5.71994
C     1.42963  -0.65659  -3.03002
C     0.23823   6.02438   4.62189
H    -0.04879   7.00817   4.96208
C     4.10187  -1.81865   3.31910
H     4.78345  -2.49400   3.81234
C     2.22832   1.31784   4.00465
C     1.33795   2.14871   3.32075
C     2.23495  -0.15194   2.02763
C     3.79501  -2.10025  -0.86424
H     3.81987  -3.18466  -0.75773
H     4.73621  -1.69572  -0.49995
H     3.69147  -1.88042  -1.92497
C     1.77592   4.19432   4.63868
H     2.72729   3.77892   4.93860
C    -0.45349   2.23777   1.63485
C    -0.05120  -5.18945  -1.60940
H     0.57340  -5.80383  -2.25456
H    -0.98325  -4.96772  -2.12250
H    -0.28168  -5.76508  -0.71540
C     0.75990   1.65101   2.13020
C     1.41640   5.44864   5.07941
H     2.05747   5.98713   5.76054
C    -2.36632   1.99929   0.21108
H    -2.92344   1.47984  -0.55685
C    -2.24568   3.82323   1.79447
H    -2.71478   4.68786   2.23732
C    -0.54489   5.35938   3.70329
H    -1.42693   5.84808   3.32170
C     0.95966   3.47390   3.75869
C    -1.12907   1.52561   0.61816
C     1.25417  -1.03518  -4.35366
H     1.34629  -0.28913  -5.12933
C    -2.91375   3.13528   0.80192
H    -3.88491   3.48307   0.47909
C     1.31280  -1.64028  -2.04203
C     0.65783  -3.90054  -1.21776
H     1.59689  -4.15108  -0.71188
H     0.03529  -3.36076  -0.49049
C    -0.99183   3.39430   2.23358
C     0.93056  -2.95167  -2.35724
C    -0.20612   4.08420   3.24202
C     3.14687   1.10474  -2.37737
H     3.78836   0.74158  -3.17869
H     3.46266   0.64798  -1.44218
H     3.28439   2.18015  -2.28870
O    -1.15209  -0.56393  -1.03787
