59

Pd    0.00000   0.00000   0.00000
N     1.93019   1.85537   1.34042
C     1.77144   1.26162   2.62043
N     1.69183   2.28964  -0.76897
C     0.53920   1.33584   3.27625
C     0.42272   0.79639   4.54906
H    -0.53137   0.85018   5.05454
C     1.49306   0.18325   5.17935
C     2.69427   0.08743   4.49324
H     3.52586  -0.42689   4.95334
C     2.85167   0.60482   3.21764
C    -0.66811   1.93672   2.61746
H    -0.41369   2.82384   2.03699
H    -1.41615   2.20302   3.36084
H    -1.10896   1.18719   1.93567
C     1.34533  -0.41055   6.54698
H     2.26692  -0.30769   7.11565
H     1.11925  -1.47375   6.46368
H     0.53543   0.06625   7.09410
C     4.14337   0.38737   2.48972
H     4.83422   1.21982   2.63540
H     3.95320   0.24903   1.42821
H     4.62312  -0.51262   2.86460
C     1.26729   1.52509   0.23808
C     2.83426   2.98844   1.13250
H     2.45336   3.85997   1.67912
H     3.83738   2.76942   1.49512
C     2.78280   3.18259  -0.38415
H     2.57351   4.21316  -0.67534
H     3.71004   2.86764  -0.87697
C     1.18833   2.22640  -2.09475
C     0.40876   3.27903  -2.58054
C    -0.06965   3.21434  -3.88046
H    -0.67462   4.02668  -4.25767
C     0.19403   2.12463  -4.69709
C     0.94678   1.07850  -4.18418
H     1.14411   0.21552  -4.80426
C     1.45097   1.10491  -2.89103
C     0.05096   4.44802  -1.71112
H    -0.03163   4.14118  -0.67034
H     0.80295   5.23468  -1.78550
H    -0.90039   4.87013  -2.02588
C    -0.31710   2.08336  -6.10479
H    -1.25610   2.62491  -6.19278
H     0.40495   2.55037  -6.77543
H    -0.46746   1.05804  -6.43380
C     2.23367  -0.05944  -2.36589
H     2.57479  -0.69186  -3.18159
H     3.09622   0.26769  -1.78690
H     1.60231  -0.67340  -1.69447
C    -1.63466   0.82210  -1.05040
H    -1.33684   0.73530  -2.09541
H    -2.14460   1.75166  -0.81924
C    -2.04400  -0.35128  -0.37688
H    -2.73608  -0.27750   0.46455
C    -1.35740  -1.54304  -0.59679
H    -0.94776  -1.74881  -1.59185
H    -1.62693  -2.42466  -0.02381
O     1.11460  -1.01178   0.67564
