46

Ti    0.00000   0.00000   0.00000
Cl   -1.29239   1.64156   0.53515
N    -0.76318  -0.75035  -1.52451
N    -1.15989  -3.20701  -2.11719
B    -0.82886  -2.16069  -1.25778
C    -0.27796  -2.18559   0.23831
C    -0.99954  -1.55176   1.29319
H    -2.07397  -1.60500   1.44137
C    -0.08115  -0.93779   2.17579
H    -0.32447  -0.47404   3.12472
C     1.21684  -1.16392   1.67498
H     2.14340  -0.89587   2.16828
C     1.10025  -1.92044   0.48719
H     1.92994  -2.30239  -0.09965
C    -0.79971   1.17144  -2.99200
H     0.27065   1.28970  -2.84551
C    -1.50599   2.05256  -3.78807
H    -0.98944   2.87533  -4.26038
C    -2.86886   1.88938  -3.98260
H    -3.41501   2.58328  -4.60318
C    -3.52827   0.83599  -3.36898
H    -4.59211   0.71041  -3.50903
C    -2.83614  -0.05087  -2.56893
H    -3.34316  -0.86528  -2.06837
C    -1.45577   0.09861  -2.36965
C    -1.43834  -2.98565  -3.53377
H    -1.38926  -1.90463  -3.68870
C    -0.36791  -3.62446  -4.42289
H     0.61663  -3.27105  -4.12606
H    -0.53929  -3.34188  -5.45820
H    -0.38529  -4.70948  -4.35856
C    -2.84121  -3.45162  -3.93201
H    -3.58164  -3.03483  -3.25471
H    -2.92768  -4.53516  -3.91711
H    -3.06461  -3.10751  -4.93821
C    -1.17569  -4.59758  -1.65769
H    -1.47512  -5.22129  -2.50367
C    -2.20366  -4.78668  -0.54167
H    -3.18348  -4.44781  -0.86812
H    -1.91115  -4.21701   0.33554
H    -2.27138  -5.83740  -0.27120
C     0.20795  -5.05756  -1.19581
H     0.95090  -4.85346  -1.96202
H     0.19570  -6.12678  -0.99887
H     0.49208  -4.53812  -0.28580
O     1.35855   0.83009  -0.43337
