56

Fe    0.00000   0.00000   0.00000
Cl   -1.27951   1.73754  -0.41890
N    -0.35847  -0.83327  -1.68970
C    -1.26963  -0.46563  -2.59299
H    -1.89489   0.36450  -2.30153
C    -1.39490  -1.06696  -3.82995
H    -2.14558  -0.71725  -4.52005
C    -0.54303  -2.10883  -4.16378
H    -0.61107  -2.60416  -5.11972
C     0.41615  -2.48762  -3.23525
H     1.11829  -3.27834  -3.45218
C     0.48722  -1.82534  -2.02414
N     0.42339   0.75043   1.70202
C     1.57911   1.31385   2.06503
H     2.34243   1.32666   1.30176
C     1.78734   1.87794   3.30819
H     2.74030   2.32720   3.53698
C     0.75931   1.86348   4.23883
H     0.88329   2.29975   5.21764
C    -0.44175   1.27391   3.87102
H    -1.27738   1.23963   4.55338
C    -0.57444   0.73769   2.60383
C    -1.84917   0.12105   2.11550
H    -2.44886  -0.28015   2.94224
H    -2.40855   0.90478   1.59626
N    -1.51968  -0.90090   1.12115
C    -0.89757  -2.05325   1.77787
H    -1.65212  -2.75587   2.15169
H    -0.32159  -1.68646   2.63112
C     0.05788  -2.73832   0.81137
H    -0.50267  -3.12305  -0.04360
H     0.55834  -3.58453   1.30029
N     1.00930  -1.75025   0.30762
H     1.77063  -1.61495   0.96583
C     1.54466  -2.12009  -0.99980
H     1.87485  -3.16641  -1.04265
H     2.38915  -1.45521  -1.20600
C    -2.69183  -1.25864   0.30927
H    -2.36839  -1.97482  -0.44821
H    -2.99247  -0.33914  -0.19706
C    -3.84481  -1.83455   1.08805
C    -4.79263  -1.00589   1.68485
H    -4.72512   0.06305   1.55187
C    -5.82658  -1.53244   2.42639
H    -6.56324  -0.89451   2.88795
C    -5.95187  -2.91393   2.59119
O    -7.00435  -3.32954   3.34495
C    -7.20670  -4.71063   3.51965
H    -8.09910  -4.80185   4.13652
H    -6.36228  -5.17956   4.03560
H    -7.37557  -5.21642   2.56352
C    -5.02405  -3.75063   1.98246
H    -5.09772  -4.82320   2.07064
C    -3.98778  -3.20632   1.24088
H    -3.28992  -3.87747   0.75788
O     1.31801   0.68271  -0.72059
