24

Hg    0.00000   0.00000   0.00000
N     0.79717  -0.52488   2.59394
C     1.74640  -1.36825  -0.07589
C     2.11088  -2.00699   1.11296
C     3.25597  -2.79341   1.14657
H     3.53526  -3.28322   2.06925
C     4.03778  -2.95847   0.01732
H     4.92428  -3.57366   0.05996
C     3.67901  -2.33064  -1.16017
H     4.28067  -2.45292  -2.04855
C     2.54220  -1.53589  -1.20428
H     2.28189  -1.05279  -2.13727
C     1.25829  -1.89358   2.35761
H     0.37446  -2.52878   2.22736
H     1.82058  -2.27208   3.22666
C     1.91394   0.30101   3.03763
H     2.31337  -0.04626   4.00124
H     1.58072   1.33132   3.14680
H     2.70971   0.26568   2.29483
C    -0.26157  -0.50040   3.59437
H    -1.10615  -1.09522   3.24956
H    -0.59731   0.52557   3.73201
H     0.08084  -0.89464   4.56172
O    -1.24497   1.06813   0.17794
