49

N     4.28893  -2.82129  -3.22583
H     4.47190  -2.94922  -2.22260
C     5.52852  -3.13254  -3.97109
H     5.33271  -2.95612  -5.03150
H     5.76562  -4.19069  -3.83362
C     6.68180  -2.25500  -3.50440
H     6.89619  -2.44753  -2.45065
H     7.57313  -2.51391  -4.07552
C     6.32398  -0.78540  -3.70098
H     6.18373  -0.57993  -4.76355
H     7.13531  -0.15281  -3.34454
C     5.04503  -0.46968  -2.93235
H     4.73527   0.55898  -3.11271
H     5.22803  -0.56141  -1.86119
C     3.89465  -1.37448  -3.35895
H     3.67685  -1.20925  -4.41860
C     2.62267  -1.14341  -2.54542
H     2.30346  -0.09521  -2.63071
C     1.50884  -1.99789  -3.14039
H     1.40816  -1.80613  -4.20846
H     0.56891  -1.73903  -2.65510
C     1.87370  -3.45055  -2.87427
H     1.11596  -4.11056  -3.30502
C     3.19044  -3.74597  -3.60569
H     3.52492  -4.76896  -3.40951
H     3.02661  -3.63573  -4.68031
C     1.95801  -3.72821  -1.35800
H     2.94074  -4.15343  -1.10772
C     0.87485  -4.69152  -0.87745
H     0.87939  -5.58962  -1.49850
H    -0.08471  -4.18254  -0.98275
C     1.10041  -5.04572   0.59023
H     0.29758  -5.69437   0.93898
H     2.04473  -5.58971   0.70106
C     1.13240  -3.76375   1.41594
H     1.35873  -3.97453   2.46046
H     0.16110  -3.27013   1.36287
C     2.17273  -2.80059   0.86787
H     2.15486  -1.85554   1.42037
H     3.17676  -3.23363   0.90349
N     1.83121  -2.46104  -0.54786
C     2.81377  -1.46728  -1.05199
H     3.81197  -1.85352  -0.81582
H     2.65528  -0.57082  -0.44029
O     0.57680  -1.99024  -0.60471
Zn    0.00000   0.00000   0.00000
Cl    1.85205   0.42245   1.40981
Cl    0.48903   1.07142  -1.99811
O    -1.52058  -0.24337   0.59254
