48

Ru    0.00000   0.00000   0.00000
S    -1.98527  -1.10255   0.86433
Cl   -0.78651  -0.21448  -2.15444
N     1.28016   1.29073  -0.68443
N     0.71764   2.39105  -1.07249
N    -0.98791   1.62402   0.19922
C     1.29697   1.09721   2.47344
H     1.81197   1.71511   1.74725
N     0.51448   0.12794   1.98504
C    -0.52345   2.58061  -0.62057
C     3.18264   1.84198  -2.07080
H     2.56119   2.53606  -2.61441
C    -2.58748   0.45989   1.52564
C    -0.01566  -0.49310   4.22881
H    -0.55793  -1.14784   4.89249
C    -0.13187  -0.66614   2.85629
C     4.49801   1.62488  -2.42068
H     4.92782   2.17120  -3.24698
C     3.39199   0.19956  -0.30680
H     2.95915  -0.35360   0.51435
C     5.26504   0.70085  -1.72533
H     6.29287   0.53024  -2.00799
C     2.61218   1.12027  -1.01455
C    -1.00825  -1.72981   2.29503
H    -1.68214  -2.14380   3.04404
H    -0.40269  -2.52374   1.84037
C    -2.02122   1.67792   1.10361
C     0.79882   0.50793   4.72953
H     0.90580   0.65206   5.79272
C     1.46813   1.31956   3.82460
H     2.11486   2.11451   4.15819
C     4.70800  -0.00641  -0.67138
H     5.30209  -0.72630  -0.12926
O    -2.39060   4.03796  -0.79241
C    -1.27558   3.73739  -1.16104
C    -0.56281   4.44961  -2.27643
H    -1.13781   5.32128  -2.57656
H    -0.46514   3.76925  -3.11959
H     0.43631   4.73527  -1.96089
C    -3.62161   0.43066   2.44194
H    -4.05962  -0.51854   2.71103
C    -2.46274   2.85084   1.72745
H    -1.99901   3.79003   1.47562
C    -3.47801   2.81007   2.66174
H    -3.80805   3.72939   3.12049
C    -4.07483   1.60852   3.01125
H    -4.87979   1.58581   3.72900
O     0.80226  -1.43251  -0.16369
