69

Sc    0.00000   0.00000   0.00000
Cl    1.24209   1.61467  -1.06490
P     2.65732  -2.19334   0.10859
O     1.51592  -1.24927   0.38232
C    -1.70841  -0.38199   1.71504
C    -0.54564   0.07864   2.40090
C    -0.29428   1.41552   1.97233
C    -1.31132   1.78456   1.03896
C    -2.18340   0.67528   0.88014
C    -2.45449  -1.66656   1.94523
H    -1.91048  -2.32569   2.61841
H    -2.62529  -2.19148   1.00353
H    -3.42928  -1.45558   2.38960
C     0.07810  -0.58320   3.59985
H    -0.47868  -0.30900   4.49970
H     1.10929  -0.26334   3.73822
H     0.05623  -1.66870   3.51537
C     0.72901   2.37118   2.51883
H     0.23514   3.16238   3.08670
H     1.29078   2.84226   1.71045
H     1.43050   1.86606   3.17945
C    -1.49940   3.17739   0.50624
H    -2.22936   3.19613  -0.30056
H    -0.56040   3.58243   0.12845
H    -1.85352   3.83578   1.30319
C    -3.49262   0.63970   0.14277
H    -4.32123   0.68344   0.85375
H    -3.59238  -0.28055  -0.43323
H    -3.58449   1.48237  -0.53939
C     3.91846  -1.85290   1.50359
C     4.00849  -0.33438   1.69238
H     4.36481  -0.11233   2.69762
H     3.02702   0.12732   1.57186
H     4.69437   0.13230   0.99482
C     3.34258  -2.42886   2.79776
H     3.36708  -3.51454   2.80835
H     2.32254  -2.08276   2.93766
H     3.93621  -2.08473   3.64473
C     5.30059  -2.45213   1.26838
H     5.91635  -2.27683   2.15047
H     5.80480  -1.99557   0.42209
H     5.24753  -3.52507   1.10456
C     1.91581  -3.95113   0.19599
C     0.87520  -3.97015   1.31789
H     0.26488  -4.86732   1.22410
H     0.21514  -3.10624   1.22125
H     1.31756  -3.97676   2.30805
C     2.95614  -5.04878   0.39575
H     3.43806  -4.98625   1.36740
H     3.72223  -5.01530  -0.37367
H     2.46289  -6.01860   0.33619
C     1.14738  -4.21337  -1.10039
H     1.81018  -4.35078  -1.94935
H     0.44340  -3.40612  -1.30220
H     0.57015  -5.13150  -0.99211
C     3.39189  -1.79786  -1.60735
C     2.25718  -1.55222  -2.60284
H     2.67836  -1.14678  -3.52230
H     1.55560  -0.80894  -2.21276
H     1.70331  -2.44688  -2.86219
C     4.16241  -0.48044  -1.50287
H     5.08423  -0.58362  -0.93839
H     3.53611   0.29545  -1.06417
H     4.43241  -0.14856  -2.50484
C     4.32162  -2.89338  -2.12361
H     3.78195  -3.80702  -2.35577
H     5.10806  -3.12517  -1.41090
H     4.79310  -2.54918  -3.04353
O    -0.77927  -0.96276  -1.09011
