41

Ni    0.00000   0.00000   0.00000
O     0.47649  -2.00422  -0.70012
H     1.15925  -1.69908  -1.32365
N     1.46081   0.60064   1.61453
N    -0.35678   1.86658   0.30466
C     2.64222   0.28184   3.72387
H     2.59646   1.34218   3.91957
C     2.06207  -0.21286   2.54695
N     1.26573   1.82061   1.93369
C     0.54039   2.54451   1.03904
C     0.64625   3.93441   0.93842
H     1.37515   4.44966   1.54146
C     2.12559  -1.58156   2.26251
H     1.65526  -1.94500   1.35957
C     2.74481  -2.43958   3.14629
H     2.78272  -3.49730   2.93352
C    -0.17194   4.59839   0.04171
H    -0.09487   5.66929  -0.06795
C     3.27207  -0.58559   4.58919
H     3.72573  -0.20737   5.49337
C     3.32178  -1.94495   4.30736
H     3.81222  -2.61821   4.99472
H    -0.23729  -2.38118  -1.22613
N    -1.81213   0.51514  -1.33103
C    -3.56930   0.20296  -2.96343
H    -3.47416   1.23981  -3.24732
C    -2.75841  -0.28459  -1.93035
N    -2.08542   1.75437  -1.22625
C    -1.15541   2.50418  -0.56553
C    -1.09404   3.89027  -0.71320
H    -1.75000   4.37280  -1.41831
C    -2.85329  -1.62961  -1.55654
H    -2.28340  -1.97441  -0.70518
C    -3.73732  -2.46463  -2.20674
H    -3.82218  -3.49698  -1.90126
C    -4.43038  -0.64978  -3.62095
H    -5.04175  -0.27464  -4.42827
C    -4.51832  -1.98335  -3.24804
H    -5.19758  -2.64497  -3.76398
Cl    1.35460   0.60292  -1.56704
O    -1.00697  -0.52113   1.19872
