40

Ni    0.00000   0.00000   0.00000
Cl    0.73401   0.93949  -1.70299
C    -2.46589   1.10291  -0.19832
C    -3.84544   1.08344  -0.43238
H    -4.29947   0.16980  -0.78227
C    -1.85728   2.27736   0.25707
H    -0.78056   2.29169   0.43273
C    -4.59276   2.22113  -0.20928
H    -5.65713   2.20334  -0.38898
C    -2.61757   3.40744   0.47633
H    -2.14476   4.31115   0.82847
C    -3.98538   3.38295   0.24530
H    -4.57790   4.26822   0.41966
N    -1.69097  -0.03634  -0.40776
N    -2.26701  -1.05012  -0.89765
N     1.78787  -2.94154  -0.26591
H     2.55282  -3.58031  -0.44620
N     2.08472  -1.65208   0.19648
H     2.10549  -1.60639   1.21690
N    -0.26631  -2.12414  -0.66758
C     0.55626  -3.15251  -0.80235
C    -1.53222  -2.18411  -1.09298
C    -2.04704  -3.33436  -1.69031
H    -3.06843  -3.36697  -2.02689
C     0.12546  -4.34635  -1.40063
H     0.79884  -5.18097  -1.51133
C    -1.18589  -4.41472  -1.83666
H    -1.54413  -5.32188  -2.29999
C     3.16207  -0.97935  -0.40760
C     3.48830  -1.20179  -1.74129
H     2.91847  -1.90790  -2.32764
C     3.87615  -0.03755   0.32832
H     3.60911   0.14492   1.35993
C     4.51530  -0.48533  -2.32727
H     4.75618  -0.65730  -3.36569
C     5.22237   0.45308  -1.59659
H     6.01912   1.01411  -2.06056
C     4.89392   0.67875  -0.26954
H     5.43532   1.41571   0.30485
O    -0.06781  -0.07575   1.64686
