39

Ti    0.00000   0.00000   0.00000
Cl    2.09429  -0.19175   0.85625
Cl   -2.00706   0.90458  -0.38494
Cl    0.58705  -0.11614  -2.07488
N     0.54237   2.75599   1.15564
N     0.57735   2.01438   0.06816
N     1.18409   2.58593  -0.88987
N     1.58218   3.76342  -0.43258
H     2.10707   4.39801  -1.01423
N    -1.54531  -0.46688   2.35111
N    -0.51754   0.30961   2.07969
N     0.10083   0.67177   3.13004
N    -0.53181   0.11137   4.15164
H    -0.20622   0.22939   5.09825
C     1.18132   3.87169   0.86130
C     1.41701   4.98123   1.75686
C     1.95240   6.18975   1.31182
H     2.19455   6.33605   0.26955
C     2.16473   7.21843   2.21038
H     2.57788   8.15383   1.86493
C     1.84895   7.05222   3.54948
H     2.01900   7.85952   4.24547
C     1.31512   5.85232   3.99481
H     1.07021   5.72632   5.03836
C     1.09746   4.81829   3.10606
H     0.68944   3.87195   3.42375
C    -1.57220  -0.61675   3.65995
C    -2.51371  -1.42346   4.39893
C    -2.55468  -1.42713   5.79330
H    -1.88424  -0.80396   6.36733
C    -3.46872  -2.22963   6.44914
H    -3.50130  -2.23272   7.52815
C    -4.34036  -3.02925   5.72641
H    -5.04950  -3.65527   6.24656
C    -4.30233  -3.02656   4.34027
H    -4.98102  -3.65073   3.78020
C    -3.39492  -2.22778   3.67286
H    -3.33901  -2.21117   2.59573
O    -0.37345  -1.59993   0.15253
