40

Pd    0.00000   0.00000   0.00000
N    -2.51453   0.21088   1.23344
N    -1.45780  -0.59478   1.19057
N     0.74501  -1.97842   0.59100
C    -2.30983   1.47122   0.63486
C    -1.11958   1.65180  -0.10170
C    -0.89976   2.88700  -0.69164
H    -0.00313   3.06400  -1.26928
C    -1.82695   3.91483  -0.56218
H    -1.63916   4.86484  -1.03948
C    -2.97618   3.72801   0.18162
H    -3.68756   4.53192   0.29925
C    -3.22189   2.50796   0.78946
H    -4.10899   2.38413   1.39255
C    -1.32850  -1.75579   1.78434
C    -0.09870  -2.49311   1.51459
C     0.22556  -3.67780   2.18756
H    -0.43699  -4.06558   2.94497
C     1.40216  -4.33317   1.88329
H     1.66152  -5.24708   2.39658
C     2.24401  -3.79905   0.91800
H     3.16990  -4.28113   0.65086
C     1.87270  -2.61250   0.30600
H     2.50537  -2.15201  -0.44393
C    -2.26334  -2.31232   2.78972
C    -2.88827  -3.54290   2.59682
H    -2.72712  -4.08425   1.67480
C    -3.72378  -4.05891   3.56960
H    -4.21031  -5.00927   3.40820
C    -3.93595  -3.36125   4.74807
H    -4.58620  -3.76866   5.50714
C    -3.30903  -2.14391   4.95198
H    -3.46474  -1.60091   5.87224
C    -2.47676  -1.61949   3.97947
H    -1.97359  -0.67675   4.14522
C    -3.83930  -0.22223   1.60710
H    -3.94650  -1.28967   1.41398
H    -4.56425   0.30928   0.99122
H    -4.05730  -0.03383   2.66243
O     1.22416   0.41219  -1.02666
