40

Pd    0.00000   0.00000   0.00000
N     1.13830   2.54934   0.23500
N     1.17750   1.47380  -0.54649
N     0.74353  -0.79267  -1.88148
C     0.44031   2.36267   1.44709
C    -0.27908   1.15733   1.59743
C    -0.97417   0.95252   2.77964
H    -1.54275   0.04306   2.92266
C    -0.96022   1.90890   3.78849
H    -1.51587   1.73504   4.69774
C    -0.22920   3.07163   3.63565
H    -0.20055   3.80584   4.42713
C     0.47922   3.30426   2.46791
H     1.06779   4.20489   2.37542
C     1.84960   1.32866  -1.66360
C     1.66620   0.06751  -2.37213
C     2.41793  -0.27599  -3.50343
H     3.17295   0.39915  -3.87378
C     2.19340  -1.48681  -4.12742
H     2.76832  -1.76055  -4.99953
C     1.22868  -2.34549  -3.61735
H     1.02529  -3.29786  -4.07840
C     0.53441  -1.95410  -2.48410
H    -0.21967  -2.59315  -2.03787
C     2.85191   2.27985  -2.19798
C     4.00037   2.55617  -1.45957
H     4.13836   2.08940  -0.49408
C     4.96795   3.40466  -1.96712
H     5.85661   3.60951  -1.38888
C     4.80075   3.98465  -3.21302
H     5.55637   4.64695  -3.60735
C     3.66386   3.70951  -3.95614
H     3.53090   4.15883  -4.92899
C     2.69649   2.85797  -3.45659
H     1.80675   2.64645  -4.03332
C     1.51707   3.87181  -0.20159
H     1.39922   3.95153  -1.28219
H     2.55209   4.11430   0.05661
H     0.85201   4.59626   0.26742
O    -1.00479  -1.25023   0.38708
