52

Pd    0.00000   0.00000   0.00000
P    -0.63316   1.18587  -1.75425
S     0.95116   1.77214   1.12898
N     0.62638  -1.24299   1.59579
C     1.98569   0.72927   2.21974
H     2.29411   1.35496   3.05921
H     2.87910   0.42064   1.67207
C     1.16890  -0.45306   2.71176
H     0.32511  -0.05687   3.28795
H     1.77213  -1.09936   3.37241
C     1.66866  -2.07427   0.98686
H     1.22916  -2.66204   0.17611
H     2.10751  -2.75716   1.72889
H     2.46390  -1.44380   0.57303
C    -0.46114  -2.09490   2.07733
H    -1.26565  -1.47157   2.47889
H    -0.85595  -2.68143   1.24553
H    -0.10734  -2.77449   2.86483
C    -0.17835   2.93283  -1.96609
C    -0.65926   3.81984  -1.00653
H    -1.26376   3.43629  -0.19379
C    -0.34563   5.16174  -1.08692
H    -0.71488   5.84875  -0.34003
C     0.45150   5.62432  -2.12327
H     0.70050   6.67360  -2.18496
C     0.93617   4.74287  -3.07456
H     1.56217   5.10437  -3.87767
C     0.62624   3.39554  -2.99895
H     1.00930   2.70548  -3.73852
C    -2.44266   1.27789  -1.82209
C    -3.13329   1.91972  -2.84483
H    -2.58853   2.37903  -3.65860
C    -4.51437   1.98320  -2.80185
H    -5.05538   2.47191  -3.59918
C    -5.20488   1.42862  -1.73555
H    -6.28353   1.47950  -1.70946
C    -4.51666   0.82213  -0.69678
H    -5.05796   0.40752   0.14088
C    -3.13630   0.75018  -0.73612
H    -2.57158   0.27875   0.07808
C     0.06710   0.36370  -3.21171
C     1.35902  -0.12032  -3.00042
H     1.82132   0.02818  -2.01643
C     2.02179  -0.79137  -4.00813
H     3.02044  -1.17024  -3.84629
C     1.39153  -0.99349  -5.22777
H     1.90258  -1.52853  -6.01463
C     0.10362  -0.52961  -5.43226
H    -0.38923  -0.70659  -6.37713
C    -0.56463   0.15178  -4.42747
H    -1.57811   0.49130  -4.58130
O    -0.66468  -1.25872  -0.83447
