48

Fe    0.00000   0.00000   0.00000
Cl    1.84064  -0.88266   0.67299
N     0.73916   0.12342  -1.77060
C     1.67520   0.92905  -2.24379
N     2.20033   0.42739  -3.38935
C     3.29992   0.93866  -4.16312
C     1.55996  -0.74904  -3.63530
C     0.65380  -0.92643  -2.63439
N     0.61419   1.81428   0.36668
C     1.44253   2.56701  -0.34475
N     1.70366   3.73394   0.30083
C     2.59162   4.78502  -0.11496
C     1.00385   3.70763   1.46750
C     0.33225   2.52371   1.49671
N     2.42298   3.87356  -3.56621
C     1.62149   3.30582  -2.69420
N     0.33571   3.71595  -2.85824
C    -0.84703   3.34452  -2.12984
C     0.35141   4.60672  -3.89438
C     1.64478   4.69067  -4.31799
C     2.07312   2.27207  -1.68260
O     3.48553   2.37395  -1.58490
C     4.06649   1.47958  -0.65070
O    -0.97523  -0.45804   1.93271
C    -0.47467  -0.81301   3.20682
H     3.14349   0.68539  -5.21108
H     3.36918   2.02060  -4.04834
H     4.23554   0.48984  -3.82300
H     1.79664  -1.35632  -4.48432
H    -0.04763  -1.72242  -2.46990
H     2.46773   5.63407   0.55465
H     3.62780   4.44528  -0.08600
H     2.37355   5.09181  -1.13751
H     1.03924   4.51442   2.17027
H    -0.33110   2.13730   2.24260
H    -1.72079   3.57661  -2.73569
H    -0.85941   2.27955  -1.90029
H    -0.91991   3.89802  -1.19122
H    -0.54096   5.08912  -4.23509
H     2.06910   5.27627  -5.10737
H     5.13371   1.48878  -0.86087
H     3.67156   0.46582  -0.74961
H     3.89223   1.80412   0.38002
H    -1.91354  -0.22574   1.97453
H     0.58577  -1.01939   3.06771
H    -0.59743   0.00332   3.92529
H    -0.97457  -1.71003   3.58309
O    -1.52966   0.39967  -0.47211
