18

Pt    0.00000   0.00000   0.00000
Cl    1.45248   0.72755  -1.52938
C    -1.09013  -1.38601   1.27667
H    -0.58463  -1.63765   2.19802
C    -1.89052  -0.28340   1.04187
H    -2.13728   0.50147   1.74248
C    -2.71411  -0.60831  -0.20729
H    -3.59237   0.00480  -0.38411
C    -1.64034  -0.60026  -1.29871
H    -1.71473  -0.03531  -2.21694
C    -0.83991  -1.70299  -1.06390
H    -0.16223  -2.17407  -1.76153
C    -1.41605  -2.39654   0.17357
H    -1.10493  -3.42226   0.34571
C    -2.91593  -2.12155  -0.02397
H    -3.32749  -2.60838  -0.90724
H    -3.51511  -2.37028   0.85109
O     0.83004   0.84787   1.14658
