47

Re    0.00000   0.00000   0.00000
S    -1.82060  -0.27385  -1.90756
S     0.00515  -4.79590  -0.55794
S    -3.22606   0.67911  -6.87886
O     2.33491   0.34104   1.99671
O    -2.32852   0.04711   2.02073
O    -0.09720   3.05151  -0.45174
N    -0.03688  -2.30490   0.11043
N    -2.21834  -1.14350  -5.35017
C     1.43235   0.20480   1.30110
C    -1.46106   0.02953   1.27178
C    -0.05906   1.92504  -0.24474
C    -1.81510  -2.01089  -2.45894
H    -2.58936  -2.50344  -1.86887
H    -2.10668  -1.97697  -3.51095
C    -0.46951  -2.71625  -2.31229
H    -0.48198  -3.62340  -2.92047
H     0.33113  -2.07174  -2.69577
C    -0.16678  -3.09744  -0.90801
C     0.26939  -4.39493   1.11055
C     0.19641  -2.99999   1.28041
C     0.34399  -2.47502   2.56412
H     0.26456  -1.41057   2.72800
C     0.58294  -3.33263   3.61607
H     0.70110  -2.92652   4.60845
C     0.67407  -4.70957   3.42418
H     0.86763  -5.35614   4.26583
C     0.51235  -5.25571   2.16806
H     0.57013  -6.31987   2.00259
C    -1.07417   0.59022  -3.33869
H    -0.53671   1.43694  -2.91151
H    -0.35964  -0.07940  -3.81425
C    -2.12080   1.09178  -4.32803
H    -3.03690   1.36229  -3.79154
H    -1.75322   2.00385  -4.80633
C    -2.45307   0.11194  -5.39556
C    -3.20737  -0.96242  -7.45544
C    -2.62103  -1.79713  -6.48069
C    -2.49509  -3.16081  -6.72398
H    -2.04518  -3.79644  -5.97761
C    -2.94882  -3.66240  -7.92526
H    -2.85587  -4.71802  -8.13076
C    -3.52468  -2.82909  -8.88207
H    -3.86865  -3.24914  -9.81491
C    -3.66181  -1.47263  -8.65908
H    -4.10629  -0.82518  -9.39854
O     1.19948  -0.14180  -1.12411
