48

Cu    0.00000   0.00000   0.00000
Cl    0.99613  -1.29749   1.40928
S    -2.91951  -0.50596   0.77711
N    -3.60790   0.73539  -1.82971
H    -2.54650   0.64984  -1.91422
N    -3.87209   0.14717  -4.04814
N    -5.61542  -0.20320  -2.55879
N    -0.79507   1.49226   1.22967
C    -4.35648   0.22882  -2.79721
C    -4.10691  -1.00703  -4.88807
H    -4.75207  -1.72212  -4.38659
H    -3.15051  -1.49285  -5.09265
H    -4.55681  -0.71465  -5.83943
C    -2.75272   0.97132  -4.45989
H    -2.81756   1.94213  -3.97568
H    -2.81268   1.10340  -5.53934
H    -1.79337   0.52859  -4.18915
C    -6.04379  -0.61542  -1.24197
H    -5.18927  -0.95932  -0.66326
H    -6.74514  -1.44324  -1.35479
H    -6.54081   0.19348  -0.69908
C    -6.67106  -0.09553  -3.53979
H    -6.31613   0.43192  -4.42049
H    -7.50085   0.46941  -3.10709
H    -7.04547  -1.07888  -3.83429
C    -4.09271   1.43944  -0.70940
C    -4.85724   2.58245  -0.90157
H    -5.11410   2.87684  -1.90914
C    -5.25948   3.34851   0.17835
H    -5.84498   4.24070   0.01847
C    -4.89440   2.97114   1.45952
H    -5.19464   3.56854   2.30679
C    -4.15888   1.81863   1.66546
H    -3.90887   1.52164   2.67097
C    -3.75510   1.03879   0.58946
C    -1.99786  -0.28898   2.32967
H    -2.65964  -0.44154   3.18208
H    -1.24754  -1.09194   2.29514
C    -1.27503   1.01550   2.38522
C    -1.07318   1.66557   3.59281
H    -1.47007   1.24507   4.50454
C    -0.35193   2.84846   3.60951
H    -0.17638   3.37066   4.53784
C     0.13238   3.34867   2.40757
H     0.68777   4.27244   2.37171
C    -0.11885   2.64188   1.25020
H     0.22198   2.99536   0.28625
O    -0.51340   0.30739  -1.53767
