23

Zn    0.00000   0.00000   0.00000
N     1.65010   1.28950  -0.11083
N    -0.65766   1.19098   1.59383
Cl   -1.23724   0.80287  -1.66259
N     1.50340   2.54394  -0.54712
N    -1.08482   2.44050   1.39064
C     2.64638   2.97339  -1.13567
H     2.73135   3.95547  -1.55533
C    -1.97964   2.79203   2.34586
H    -2.44375   3.75755   2.35726
C     3.56231   1.95522  -1.05481
H     4.56960   1.94943  -1.41489
C    -2.11329   1.72729   3.20085
H    -2.73444   1.65765   4.06897
C    -1.26634   0.74421   2.67737
H    -1.07054  -0.24840   3.03305
C     2.88171   0.91716  -0.40866
H     3.22443  -0.06479  -0.14674
C    -0.70008   3.28910   0.36563
H    -1.41992   4.08433   0.22594
C     0.36916   3.33054  -0.43610
H     0.39568   4.15431  -1.13663
O     0.47089  -1.47915   0.55935
