27

Pd    0.00000   0.00000   0.00000
Cl    0.64013   0.62977  -2.01872
O     1.76898  -2.23877   3.82771
N    -0.28521   1.89987   0.66994
N    -0.46959  -0.40340   1.85851
C    -0.81007   1.90464   1.92002
C    -1.23881   3.09041   2.52367
H    -1.65312   3.06030   3.51921
C    -1.12856   4.27642   1.82622
H    -1.45568   5.20497   2.26818
C    -0.58975   4.25339   0.54304
H    -0.48954   5.15952  -0.03180
C    -0.18054   3.04549   0.00427
H     0.24539   2.97666  -0.99062
C    -0.82539   0.61856   2.56067
H    -1.06487   0.53729   3.61985
C    -0.20564  -1.67105   2.48913
H    -0.56080  -2.46636   1.81992
H    -0.68318  -1.75072   3.47429
C     1.28310  -1.78266   2.65660
C     3.11181  -2.21607   3.73435
H     3.66597  -2.56404   4.58259
C     3.49964  -1.73554   2.52356
H     4.50129  -1.60453   2.17089
C     2.30609  -1.44488   1.81543
H     2.22883  -1.05946   0.80196
O    -0.05251  -1.57141  -0.50042
