26

O     0.15425   0.52704  -2.25743
C     0.76173   0.89395   2.64713
C    -0.28888  -1.24272   2.93992
H     0.33376  -2.05326   2.54286
H    -1.32390  -1.47432   2.67244
C    -0.12417  -1.12632   4.45146
H    -0.85338  -0.41856   4.85319
H    -0.30726  -2.10163   4.90371
C     1.27870  -0.66616   4.80054
H     2.03676  -1.29429   4.33262
H     1.44605  -0.63085   5.87605
C     0.83809   3.08941  -0.00811
H     0.55483   3.29687  -1.02067
C     1.59248   3.86604   0.88512
H     2.02513   4.82830   0.70741
C     1.66075   3.11969   2.03273
H     2.13835   3.31312   2.97204
Cl   -1.98573  -0.87027  -0.35077
N     0.05605  -0.05713   2.21145
N     0.97264   1.97685   1.80253
N     0.47258   1.96493   0.56404
S     1.54877   1.04118   4.21179
Zn    0.00000   0.00000   0.00000
H     0.91554   0.01375  -2.55382
H    -0.63197   0.10517  -2.62577
O     1.49368  -0.69883  -0.05519
