43

Cl   -0.25056   0.56313   2.08444
C     4.17583  -2.63734  -4.02776
H     3.36235  -3.28294  -4.32208
C     4.07904  -1.91189  -2.84407
C     5.12972  -1.08055  -2.45889
H     5.06857  -0.53880  -1.52592
C     6.33311  -1.67562  -4.44602
H     7.20802  -1.58050  -5.07113
C     5.29653  -2.51125  -4.82722
H     5.36180  -3.06793  -5.74982
C     6.25002  -0.96595  -3.25918
H     7.06228  -0.32336  -2.95465
Zn    0.00000   0.00000   0.00000
S     2.79048   0.70331  -3.32685
N     1.69227   1.07508  -0.86222
C     2.19734   0.29650  -1.72513
C     2.36572   3.12246  -2.13868
H     3.44020   3.08657  -1.94346
H     2.07023   4.16720  -2.24158
N     2.19493  -1.06279  -1.42960
N     1.27461  -1.54109  -0.57552
C    -0.07389  -3.23196   1.40128
H     0.14122  -2.22882   1.73844
C     1.58878   2.50402  -0.98250
H     1.91590   2.91504  -0.02263
H     0.52126   2.73221  -1.08434
C     0.51168  -3.71340   0.23023
C     2.05654   2.37152  -3.41968
H     2.50270   2.83713  -4.29634
H     0.98308   2.24993  -3.56586
C     0.25712  -5.02543  -0.17051
H     0.69479  -5.40242  -1.08257
C     2.40901  -3.24736  -1.45146
H     2.76398  -4.23835  -1.64517
C     2.91841  -2.08182  -1.97563
C    -0.57469  -5.83331   0.58062
H    -0.77146  -6.84564   0.26002
C     1.37413  -2.86229  -0.57340
C    -0.90502  -4.04657   2.14681
H    -1.35415  -3.66336   3.05025
C    -1.15895  -5.34622   1.73896
H    -1.81023  -5.97956   2.32251
O    -0.88466   0.29801  -1.36054
