31

Zn    0.00000   0.00000   0.00000
Br   -0.63169   2.07692  -0.94906
N     1.79192   0.50272   1.17182
C     2.79911   1.23525   0.68798
C     2.87987   1.44463  -0.78434
H     2.53683   0.56388  -1.32295
H     3.89746   1.67874  -1.08508
H     2.23847   2.27982  -1.06919
C     3.74734   1.80117   1.53675
H     4.54238   2.39736   1.11700
C     3.65791   1.59831   2.90042
H     4.38309   2.03519   3.57020
C     2.62061   0.81673   3.38705
H     2.51024   0.61703   4.44010
C     1.71383   0.29607   2.48593
H     0.89258  -0.31907   2.82703
N     0.60224  -1.22175  -1.72683
C     1.15684  -2.43165  -1.60973
C     1.67786  -2.84680  -0.27779
H     2.09933  -1.99883   0.25786
H     2.43420  -3.61979  -0.38360
H     0.86126  -3.24764   0.32434
C     1.23877  -3.29212  -2.70190
H     1.68189  -4.26725  -2.57341
C     0.75079  -2.89199  -3.93094
H     0.80406  -3.55040  -4.78476
C     0.19799  -1.62492  -4.04337
H    -0.18700  -1.25797  -4.98044
C     0.14311  -0.83137  -2.91529
H    -0.27919   0.16283  -2.96369
O    -0.82858  -1.05719   0.95828
