61

Pt    0.00000   0.00000   0.00000
I     2.10807   0.35067  -1.52656
S    -1.35681   1.15301  -1.65760
O    -2.34644  -2.80060  -3.60461
N    -1.41253  -1.42850  -2.05707
N    -2.57300  -0.14156  -3.60505
C    -1.11497  -3.79487  -1.82256
C    -1.71151  -5.04388  -1.99783
H    -2.53500  -5.12818  -2.69081
C    -1.26317  -6.13927  -1.28691
H    -1.73736  -7.09951  -1.42233
C    -0.20734  -6.00260  -0.39987
H     0.14241  -6.85675   0.16034
C     0.40650  -4.77096  -0.23707
H     1.23765  -4.66382   0.44308
C    -0.03951  -3.66990  -0.94268
H     0.49393  -2.73526  -0.81432
C    -1.67807  -2.66794  -2.59439
C    -1.82618  -0.21605  -2.52108
C    -3.05120   1.10027  -4.16304
H    -2.20324   1.66904  -4.56557
H    -3.49950   1.69838  -3.36074
C    -4.07368   0.82824  -5.25821
H    -4.90747   0.26307  -4.83704
H    -3.61047   0.21925  -6.03729
C    -4.58867   2.12789  -5.86304
H    -5.06618   2.74099  -5.10244
H    -5.31633   1.91899  -6.64222
H    -3.77118   2.69676  -6.29964
H    -0.86638  -1.33754  -1.16797
H    -2.79008  -1.03089  -4.06151
S     1.35682  -1.15212   1.65850
C     1.82647   0.21672   2.52212
N     1.41291   1.42913   2.05804
C     1.67840   2.66856   2.59541
O     2.34665   2.80118   3.60572
C     1.11557   3.79554   1.82346
C     1.71213   5.04451   1.99896
H     2.53540   5.12875   2.69220
C     1.26403   6.13996   1.28797
H     1.73830   7.10015   1.42349
C     0.20851   6.00335   0.40056
H    -0.14087   6.85749  -0.15991
C    -0.40536   4.77176   0.23754
H    -1.23632   4.66468  -0.44286
C     0.04032   3.67068   0.94330
H    -0.49340   2.73619   0.81501
H     0.86677   1.33800   1.16886
N     2.57323   0.14214   3.60614
C     3.05137  -1.09973   4.16410
H     2.20334  -1.66858   4.56639
H     3.49986  -1.69774   3.36183
C     4.07361  -0.82778   5.25951
H     4.90751  -0.26259   4.83857
H     3.61023  -0.21884   6.03852
C     4.58843  -2.12749   5.86436
H     5.06632  -2.74045   5.10389
H     5.31573  -1.91865   6.64390
H     3.77079  -2.69649   6.30051
H     2.79020   1.03142   4.06274
O    -1.32352  -0.22007   0.96040
