69

Pt    0.00000   0.00000   0.00000
Br    2.10221  -0.29831  -1.29616
P     0.41310  -2.08672   0.99782
N    -2.77386  -0.02815   0.50350
O     0.81010   0.67346   2.04014
C    -2.65279  -0.52930  -0.75785
C    -1.54605   0.79687   2.28465
C    -1.38494  -0.62924  -1.34524
N    -1.67764   0.27854   1.04632
C     3.01642  -1.46978   1.79562
H     2.67852  -0.44520   1.85289
C     0.19536  -2.01680   3.78081
H     1.27272  -1.93099   3.78688
C     0.28366  -3.55888  -1.31975
H     0.94417  -2.79347  -1.70100
C    -0.47746  -2.18694   2.57548
C     4.32456  -1.78575   2.11232
H     5.00466  -1.00337   2.41317
C    -1.34561  -5.55884  -0.31189
H    -1.97128  -6.34428   0.08569
C    -1.14989   1.77275   4.83578
H    -1.01081   2.16093   5.83510
C    -0.94088  -5.59569  -1.63581
H    -1.26035  -6.40562  -2.27416
C    -3.81041  -0.93141  -1.48458
C     2.57955  -3.79371   1.32016
H     1.90324  -4.57585   1.00532
C    -0.11535  -4.60082  -2.13476
H     0.21988  -4.63603  -3.15991
C    -0.20056   0.97883   2.75367
C    -3.64108  -1.40952  -2.80865
C    -2.34960  -1.45254  -3.37204
H    -2.23703  -1.79038  -4.39165
C    -0.05727   1.48266   4.07257
H     0.94492   1.63436   4.44319
C    -0.51632  -1.94438   4.96515
H     0.01080  -1.80443   5.89682
C     2.13964  -2.47501   1.39643
C    -4.78492  -1.81039  -3.53117
H    -4.65799  -2.17273  -4.54092
C    -5.09945  -0.86270  -0.92930
H    -5.20572  -0.48803   0.07680
C    -1.86987  -2.28086   2.57052
H    -2.40113  -2.39544   1.63369
C    -6.02886  -1.73673  -2.96821
H    -6.89911  -2.04282  -3.52972
C    -0.94927  -4.52006   0.51208
H    -1.25417  -4.51080   1.54870
C    -2.65106   1.10399   3.09971
H    -3.63656   0.94981   2.68645
C    -2.46822   1.58740   4.36631
C    -1.24192  -1.06301  -2.65677
H    -0.26702  -1.07839  -3.12157
C     3.88993  -4.09819   1.64004
H     4.23067  -5.12089   1.57477
C    -2.57239  -2.21518   3.75787
H    -3.64948  -2.28752   3.74672
C    -1.89729  -2.03977   4.95571
H    -2.45006  -1.97341   5.88042
C     4.76325  -3.09722   2.03262
H     5.78793  -3.33954   2.27143
C    -6.18779  -1.25863  -1.65933
H    -7.17795  -1.20250  -1.23185
C    -3.62293   1.92708   5.25685
H    -3.56109   1.36678   6.18931
H    -4.56789   1.69800   4.77183
H    -3.60822   2.98776   5.50534
C    -0.14672  -3.50342   0.00485
O    -0.21197   1.54233  -0.54661
