37

C    -1.26885   2.21159   1.32884
H    -0.71039   2.82014   0.63374
C    -2.10064   2.75257   2.28976
H    -2.20577   3.82242   2.36706
C    -2.79266   1.90180   3.13969
H    -3.44716   2.28985   3.90447
C    -2.63223   0.53277   2.97652
H    -3.16172  -0.16783   3.60405
C    -1.79249   0.06901   1.98018
C    -1.61656  -1.37980   1.65112
H    -1.87841  -2.02627   2.49861
H    -2.29773  -1.58015   0.81753
C    -0.20764  -2.80423   0.28697
H    -1.04919  -2.71876  -0.40388
H    -0.30288  -3.73376   0.86553
C     1.06291  -2.82498  -0.55181
H     0.97697  -3.58046  -1.33125
H     1.96713  -3.01676   0.02232
C     0.68551  -1.76761   2.27579
H     1.49291  -2.43456   1.96985
H     0.19081  -2.23611   3.13758
C     1.28159  -0.43480   2.69353
H     2.16484  -0.56270   3.31746
H     0.55531   0.17822   3.22534
C     3.12582  -0.41597   0.54303
H     4.02013   0.18533   0.70577
H     3.20863  -1.33510   1.11971
C     2.93136  -0.68033  -0.93369
H     3.62728  -1.43119  -1.30798
H     3.04960   0.24512  -1.49833
N    -1.11191   0.89864   1.18001
N    -0.26006  -1.62702   1.16042
S     1.23123  -1.18748  -1.38111
S     1.70812   0.55833   1.21695
Fe    0.00000   0.00000   0.00000
Cl    0.44266   1.75712  -1.23993
O    -1.29990  -0.38058  -0.94230
