49

Pd    0.00000   0.00000   0.00000
O     0.47234  -2.49724   3.48009
N     0.80760  -1.78075   0.04852
C     0.99396  -2.46014   1.18709
C     1.33761  -3.81020   1.17749
H     1.45427  -4.31403   2.12453
C     1.50432  -4.46583  -0.02794
H     1.76472  -5.51278  -0.05497
C     1.32952  -3.74273  -1.19859
H     1.45386  -4.20294  -2.16564
C     0.97929  -2.40659  -1.11414
H     0.84617  -1.80759  -2.00989
C     0.80943  -1.81390   2.53736
C     1.17410  -0.37985   2.69516
C     2.13585   0.25297   1.89107
H     2.70394  -0.30806   1.15376
C     2.44646   1.58687   2.11460
H     3.18613   2.07063   1.49380
C     1.82498   2.29049   3.13627
H     2.07214   3.32914   3.30088
C     0.90604   1.65656   3.95913
H     0.43979   2.19813   4.76921
C     0.58224   0.32911   3.74240
H    -0.14136  -0.18044   4.36106
Cl    1.63616   0.84756  -1.39741
O    -0.47282   2.49694  -3.48011
N    -0.80803   1.78056  -0.04849
C    -0.99396   2.46014  -1.18699
C    -1.33710   3.81031  -1.17732
H    -1.45407   4.31406  -2.12437
C    -1.50371   4.46592   0.02811
H    -1.76390   5.51293   0.05512
C    -1.32918   3.74272   1.19873
H    -1.45322   4.20296   2.16579
C    -0.97949   2.40644   1.11420
H    -0.84605   1.80750   2.00998
C    -0.81070   1.81397  -2.53743
C    -1.17399   0.37954  -2.69467
C    -2.13570  -0.25352  -1.89078
H    -2.70416   0.30743  -1.15370
C    -2.44624  -1.58736  -2.11472
H    -3.18559  -2.07146  -1.49372
C    -1.82438  -2.29083  -3.13618
H    -2.07102  -3.32962  -3.30061
C    -0.90524  -1.65679  -3.95862
H    -0.43935  -2.19802  -4.76929
C    -0.58171  -0.32929  -3.74171
H     0.14099   0.18078  -4.36109
O    -1.16874  -0.60410   0.99580
