35

Pd    0.00000   0.00000   0.00000
Cl   -1.52185  -1.15860  -1.25698
N    -0.00728   1.41518  -1.32130
N     0.48247   2.58479  -5.90036
C     0.57258   1.22203  -2.50373
H     1.05968   0.25756  -2.65021
C     0.55653   2.17878  -3.50850
C    -0.10033   3.37949  -3.25605
H    -0.13421   4.13224  -4.02769
C    -0.70124   3.57247  -2.02375
H    -1.21788   4.49156  -1.79713
C    -0.63263   2.56491  -1.07701
H    -1.08406   2.67136  -0.09165
C     1.22321   1.92984  -4.83355
H     2.22464   2.37562  -4.80688
H     1.34608   0.84351  -4.97612
H     0.96428   2.47262  -6.78483
H    -0.43890   2.16896  -5.99143
N     0.01037  -1.41522   1.32128
N    -0.48013  -2.58546   5.90002
C    -0.56979  -1.22239   2.50359
H    -1.05721  -0.25808   2.65005
C    -0.55397  -2.17933   3.50817
C     0.10289  -3.38001   3.25559
H     0.13668  -4.13290   4.02712
C     0.70383  -3.57285   2.02327
H     1.22033  -4.49198   1.79650
C     0.63543  -2.56506   1.07671
H     1.08648  -2.67158   0.09118
C    -1.22074  -1.93042   4.83319
H    -2.22224  -2.37605   4.80643
H    -1.34351  -0.84408   4.97585
H    -0.96197  -2.47323   6.78446
H     0.44125  -2.16965   5.99112
O     1.09917   0.83400   0.90486
