33

Pt    0.00000   0.00000   0.00000
I    -1.36500  -1.73093   1.35210
N    -1.21356  -0.33366  -1.75015
O    -1.15688  -1.58065  -2.41788
C     0.12718  -2.16575  -2.38491
N     0.83794   1.44597  -1.29777
O     1.79223   0.99914  -2.25440
C     2.90287   0.38806  -1.63235
C    -1.03067   0.77808  -2.70535
C    -0.32921   1.96411  -2.01663
C    -1.25525   2.68527  -1.03405
C    -2.53386   3.13011  -1.73648
C    -3.25685   1.93218  -2.34442
C    -2.35319   1.21098  -3.34297
H    -0.00439  -3.16638  -2.78911
H     0.49521  -2.24171  -1.35007
H     0.84580  -1.61218  -2.99975
H     3.47106   1.10936  -1.03606
H     3.52037   0.01156  -2.44415
H     2.58812  -0.44538  -0.98817
H    -2.17086  -0.31324  -1.38095
H     1.28063   2.20849  -0.76272
H    -0.35873   0.39992  -3.48554
H     0.00142   2.66565  -2.79664
H    -1.51084   2.01407  -0.19837
H    -0.73923   3.55107  -0.61268
H    -2.28514   3.84520  -2.52426
H    -3.18360   3.63307  -1.01979
H    -3.56924   1.25457  -1.54544
H    -4.16157   2.26437  -2.85433
H    -2.13374   1.87885  -4.17855
H    -2.85542   0.32817  -3.74429
O     0.95457   0.51287   1.24429
