39

Re    0.00000   0.00000   0.00000
Cl    1.25854   0.45404  -2.02455
O    -2.26821   1.62528  -0.84221
N    -1.34888   0.97807  -0.51437
N     1.72708  -1.23780   0.62369
N    -0.57389  -1.83472  -0.75088
N     1.11088   1.41458   1.00750
C     1.63104  -1.90725   1.93376
H     0.70674  -2.49186   1.94115
H     1.51674  -1.12516   2.68980
C     2.78854  -2.82013   2.33655
H     2.85439  -3.70456   1.70692
H     2.60972  -3.15571   3.35483
H     3.74873  -2.30919   2.32015
C     1.80109  -2.22298  -0.46772
H     2.49457  -3.04284  -0.25513
H     2.14412  -1.70057  -1.37183
C     0.42004  -2.74427  -0.77591
C     0.19464  -4.06481  -1.12192
H     1.01865  -4.76198  -1.12712
C    -1.08514  -4.47590  -1.46187
H    -1.27916  -5.50134  -1.73378
C    -2.10232  -3.53437  -1.44138
H    -3.11442  -3.80048  -1.69834
C    -1.80614  -2.23455  -1.08003
H    -2.57630  -1.47609  -1.04190
C     2.82501  -0.25734   0.61801
H     3.05152  -0.00739  -0.42756
H     3.73709  -0.63634   1.09114
C     2.37225   1.02348   1.27433
C     3.22364   1.78387   2.05644
H     4.22562   1.43221   2.24934
C     2.78207   2.98978   2.57878
H     3.43205   3.59473   3.19098
C     1.48672   3.39185   2.29256
H     1.09437   4.32142   2.67097
C     0.68923   2.57869   1.51137
H    -0.33012   2.85448   1.27743
O    -0.74960  -0.37776   1.42053
