33

Mn    0.00000   0.00000   0.00000
F    -0.11279   1.75225  -0.26990
F     1.73521  -0.04129   0.03450
O     0.33691   0.03633  -2.28371
H    -0.36360   0.66004  -2.51401
N    -0.25664   0.05185   1.84957
N     0.13048  -1.95729   0.38270
C    -0.46425   1.16969   2.56910
H    -0.46647   2.09398   2.00853
C    -0.66462   1.17190   3.92452
H    -0.82675   2.10553   4.43989
C    -0.66146  -0.03653   4.64100
C    -0.88830  -0.04990   6.11778
H    -0.84207  -1.06162   6.51145
H    -1.86473   0.37262   6.35131
H    -0.13679   0.55738   6.62034
C    -0.44440  -1.18741   3.91450
H    -0.43067  -2.14433   4.41226
C    -0.24360  -1.13443   2.53189
C    -0.01290  -2.27966   1.68852
C     0.06735  -3.61261   2.11213
H    -0.04585  -3.84983   3.15802
C     0.29293  -4.61958   1.19655
C     0.38713  -6.05386   1.60432
H     0.26887  -6.16542   2.67864
H     1.35272  -6.46397   1.31215
H    -0.38444  -6.63689   1.10345
C     0.43277  -4.25354  -0.15035
H     0.60817  -5.00529  -0.90352
C     0.34510  -2.92602  -0.50206
H     0.44635  -2.60524  -1.53077
H     1.16448   0.53383  -2.29967
O    -1.56608  -0.32989  -0.40132
