43

Zr    0.00000   0.00000   0.00000
C    -0.00007   2.40542  -0.09081
C    -1.14680   2.06379   0.69046
C    -0.70701   1.53546   1.91911
C    -0.00008   2.94901  -1.45291
C     1.19920   3.20999  -2.12406
C     1.19553   3.69813  -3.41661
C    -0.00012   3.94260  -4.07079
H    -2.17927   2.27787   0.44360
H    -1.34025   1.31399   2.76856
H     2.14550   3.02252  -1.63887
H     2.13372   3.88451  -3.91831
H    -0.00009   4.31861  -5.08288
Cl   -1.69628   0.00006  -1.59523
C    -0.00008  -2.40544  -0.09080
C     1.14659  -2.06366   0.69048
C     1.14661   2.06364   0.69047
C    -1.19576   3.69820  -3.41656
C    -1.19944   3.20985  -2.12412
H    -2.14581   3.02192  -1.63915
H    -2.13380   3.88390  -3.91871
C     0.70678   1.53541   1.91912
C    -1.14681  -2.06379   0.69046
C    -0.00008  -2.94900  -1.45291
C    -1.19945  -3.20986  -2.12412
C    -1.19576  -3.69821  -3.41658
C    -0.00011  -3.94264  -4.07080
C     1.19554  -3.69815  -3.41661
C     1.19921  -3.21000  -2.12405
H     2.14549  -3.02254  -1.63883
H     2.13373  -3.88448  -3.91834
H    -0.00008  -4.31859  -5.08290
H    -2.13379  -3.88384  -3.91877
H    -2.14581  -3.02193  -1.63914
C    -0.70703  -1.53542   1.91910
H     1.34001   1.31375   2.76851
C     0.70677  -1.53539   1.91912
H     2.17910  -2.27733   0.44349
H    -1.34027  -1.31391   2.76854
H     1.34000  -1.31371   2.76851
H    -2.17928  -2.27784   0.44360
H     2.17911   2.27731   0.44347
O     1.20078   0.00018  -1.13165
