43

Zr    0.00000   0.00000   0.00000
Cl    2.16814  -0.78058   0.39481
C    -1.01070  -2.07008  -0.86215
C    -1.91176  -1.01651  -1.16190
C    -1.29041  -0.13949  -2.09546
C    -0.00832  -0.69480  -2.39759
C     0.16325  -1.86537  -1.64274
C    -1.55301  -0.43671   1.89271
C    -0.24891  -0.34412   2.42834
C     0.20279   0.98667   2.25086
C    -0.82361   1.71479   1.60895
C    -1.90334   0.83502   1.37466
C    -1.21939  -3.14609   0.11150
C    -0.16241  -3.52794   0.94456
C    -0.34636  -4.52141   1.88819
C    -1.57897  -5.14260   2.02042
C    -2.63084  -4.76725   1.20168
C    -2.45532  -3.77605   0.25318
C    -1.83772   1.12010  -2.60411
C    -1.16776   1.85542  -3.58695
C    -1.66766   3.06302  -4.03327
C    -2.85040   3.56711  -3.51879
C    -3.53425   2.84547  -2.55507
C    -3.03611   1.63921  -2.10199
H    -2.93850  -0.97117  -0.82246
H     0.69431  -0.32750  -3.13510
H     0.99318  -2.55711  -1.72618
H    -2.21679  -1.28644   1.99798
H     0.26874  -1.11942   2.98108
H     1.13563   1.39574   2.62318
H    -0.81983   2.78037   1.41223
H    -2.88389   1.13282   1.02495
H     0.79922  -3.03063   0.85202
H     0.47333  -4.81049   2.52905
H    -1.71865  -5.91678   2.75957
H    -3.59138  -5.25118   1.30001
H    -3.27294  -3.49425  -0.39444
H    -0.24374   1.48417  -4.00192
H    -1.12796   3.61762  -4.78633
H    -3.23675   4.51348  -3.86569
H    -4.46062   3.22701  -2.15052
H    -3.59277   1.09290  -1.35363
O     0.61324   1.37962  -0.66565
