60

C    -0.69695   1.81014  -0.16886
O    -1.17641   2.84679  -0.26658
C     1.52584   0.30524  -1.17020
O     2.41755   0.41582  -1.88179
C     0.99184   0.37274   1.61473
O     1.55359   0.50908   2.60610
Re    0.00000   0.00000   0.00000
S     0.44851  -2.49472   0.51604
S    -1.89574  -0.97641   1.43199
C    -1.05341  -2.43066   1.28510
C    -1.63496  -3.63517   1.82477
N    -2.91122  -3.96565   1.70151
C    -3.18021  -5.23809   2.35594
H    -3.52735  -5.96728   1.61775
H    -3.96259  -5.11474   3.10919
C    -1.81999  -5.61298   2.96626
H    -1.84300  -5.64385   4.05996
H    -1.44496  -6.57398   2.60543
N    -0.94920  -4.53279   2.52203
C    -3.81680  -3.34080   0.79609
C    -4.84163  -2.54251   1.30417
C    -5.66207  -1.87885   0.40696
H    -6.44556  -1.24087   0.78930
C    -5.47264  -1.98578  -0.96424
C    -4.45926  -2.80578  -1.43720
H    -4.28751  -2.88299  -2.49936
C    -3.62065  -3.49708  -0.57646
C    -5.02885  -2.37875   2.78269
H    -5.63585  -1.50171   2.98896
H    -4.07027  -2.25767   3.28501
H    -5.53614  -3.24684   3.20652
C    -6.31496  -1.21168  -1.92648
H    -5.70314  -0.44817  -2.40523
H    -7.14692  -0.72697  -1.42250
H    -6.70184  -1.86283  -2.70787
C    -2.52118  -4.33911  -1.14550
H    -2.88113  -4.87828  -2.01842
H    -2.12212  -5.05649  -0.43058
H    -1.71046  -3.69223  -1.48162
C     0.38175  -4.36059   2.99479
C     0.64041  -3.40419   3.97911
C     1.95119  -3.23030   4.39389
H     2.16705  -2.48142   5.14151
C     2.99055  -3.98109   3.86164
C     2.69893  -4.92861   2.89169
H     3.49861  -5.51167   2.45919
C     1.40405  -5.12966   2.43934
C    -0.44559  -2.55194   4.56331
H    -0.18510  -2.25458   5.57595
H    -1.40532  -3.06559   4.58709
H    -0.56493  -1.64089   3.97491
C     4.39347  -3.75370   4.32855
H     4.47464  -3.95764   5.39553
H     4.67769  -2.71526   4.16671
H     5.09200  -4.39359   3.79656
C     1.12087  -6.12425   1.35534
H     0.72977  -7.05326   1.77256
H     2.03353  -6.35869   0.81478
H     0.39565  -5.72808   0.64680
O    -0.94338  -0.52301  -1.24860
