45

Ru    0.00000   0.00000   0.00000
N     1.15294   1.45140  -0.83226
O     1.84439  -0.58982   0.77846
O     3.95018   0.10086   0.86032
C     0.80916   2.36451  -1.73546
H    -0.25306   2.51533  -1.88317
C     1.74743   3.09979  -2.44079
H     1.41667   3.82262  -3.16917
C     3.09663   2.88472  -2.20423
H     3.84972   3.43627  -2.74580
C     3.45216   1.93748  -1.25947
H     4.47801   1.70881  -1.01572
C     2.45496   1.23346  -0.60182
C     2.81388   0.15901   0.42710
S    -0.84068  -1.95882   0.76623
S    -2.06658   0.65565  -0.72550
S    -0.26566   1.18226   1.90225
O    -2.18327  -2.31644   0.32043
O    -2.09860   2.10187  -0.97169
O    -1.46080   0.81650   2.65814
C    -0.79355  -2.22224   2.56421
H    -1.35572  -1.42191   3.03468
H     0.24744  -2.19006   2.86398
H    -1.24231  -3.18346   2.78587
C     0.25883  -3.32228   0.30644
H    -0.05494  -4.22631   0.81493
H     1.26370  -3.02086   0.58498
H     0.19300  -3.43924  -0.77086
C    -2.70540  -0.15325  -2.21512
H    -3.65250   0.30063  -2.48205
H    -2.80821  -1.20460  -1.97042
H    -1.97180  -0.02857  -3.00494
C    -3.48930   0.34561   0.35547
H    -3.23826   0.70084   1.35013
H    -3.67329  -0.72116   0.37231
H    -4.32650   0.90130  -0.04992
C    -0.38708   2.97495   1.61146
H    -1.11898   3.12129   0.82028
H     0.58440   3.33988   1.29804
H    -0.71465   3.45393   2.52679
C     1.09896   1.22496   3.10908
H     0.77875   1.80976   3.96363
H     1.97328   1.65458   2.63351
H     1.31246   0.20380   3.40600
O     0.24185  -0.79182  -1.42724
