40

Re    0.00000   0.00000   0.00000
N     2.01697   4.28368   1.26387
N     1.97370  -0.43185   0.69897
N     0.64461   1.86231   0.86616
O    -1.47415  -0.93426   2.55201
N     4.71383   4.32600   1.31268
C     2.71189   0.68561   0.84535
C     1.97616   1.92006   0.94038
C     0.68113   4.24207   1.25487
C    -0.03785   5.44479   1.42586
H     0.53430   6.35099   1.54360
C    -0.03375   3.01403   1.07495
C     2.66490   3.14774   1.14039
C    -0.93670  -0.60025   1.59254
C     2.59488  -1.60026   0.67711
H     1.97303  -2.47955   0.57128
C     4.11602   3.14508   1.17685
O    -0.21000  -2.66044  -1.55954
C     4.11631   0.67361   0.94282
O    -2.38792   1.14475  -1.59087
C     3.97430  -1.71548   0.77961
H     4.43256  -2.69098   0.75046
C    -0.19530  -1.69476  -0.94891
C     6.83234   3.24893   1.21916
H     7.90724   3.33841   1.23048
C     4.74253  -0.57526   0.89953
H     5.81548  -0.65901   0.96286
C     4.82864   1.93090   1.07043
C     6.22640   2.01827   1.09032
H     6.83531   1.13195   0.99776
C    -1.44221   3.03792   1.13561
H    -1.98024   2.10307   1.05235
C    -1.40272   5.43152   1.44994
H    -1.95447   6.35004   1.58060
C    -1.57023   0.69090  -0.93431
C    -2.10481   4.21973   1.31823
H    -3.18310   4.22577   1.36409
C     6.02310   4.37886   1.33335
H     6.45186   5.36598   1.44240
O     0.87750   0.57068  -1.27546
