35

I     2.00025  -0.96498  -1.37327
Pd    0.00000   0.00000   0.00000
S     0.62787   2.16030  -0.59066
S     2.64404   3.61954   1.07178
S     1.77130   0.95108   1.82748
S     4.65328   3.78519   3.35871
S     3.69459   0.75222   4.14782
C     1.64939   2.25784   0.71986
C     3.44771   2.89566   2.45468
C     3.03898   1.65209   2.80564
C     5.23590   4.95461   2.09477
C     3.05876  -0.90621   3.75650
H     5.58334   4.40832   1.22335
H     4.43679   5.64229   1.83268
H     6.05882   5.49688   2.54912
H     3.47942  -1.57133   4.50401
H     1.97353  -0.91335   3.82618
H     3.39051  -1.20470   2.76543
S    -0.62690  -2.16036   0.59101
C    -1.64855  -2.25790  -0.71939
S    -2.64343  -3.61950  -1.07103
C    -3.44713  -2.89581  -2.45398
S    -4.65293  -3.78519  -3.35790
C    -5.23551  -4.95458  -2.09396
H    -5.58266  -4.40827  -1.22244
H    -4.43642  -5.64235  -1.83212
H    -6.05861  -5.49670  -2.54813
C    -3.03845  -1.65224  -2.80502
S    -1.77051  -0.95125  -1.82715
S    -3.69433  -0.75249  -4.14716
C    -3.05743   0.90582  -3.75653
H    -3.47796   1.57086  -4.50419
H    -1.97216   0.91247  -3.82644
H    -3.38882   1.20491  -2.76550
O    -1.26427   0.60815   0.86848
