25

Re    0.00000   0.00000   0.00000
C     1.13349  -1.57420   0.15731
O     1.83222  -2.47379   0.28332
C    -1.45230  -0.93506   0.89171
O    -2.30198  -1.45250   1.46489
C    -0.61325  -0.47000  -1.77515
O    -0.97360  -0.74355  -2.83184
N    -1.11162   1.92390  -0.11735
C    -2.40710   2.04281   0.06936
H    -3.08760   1.22577   0.21472
N    -2.77633   3.33331   0.04995
H    -3.70815   3.69047   0.18485
C    -1.65146   4.07566  -0.16041
H    -1.66342   5.14391  -0.21388
C    -0.61498   3.18982  -0.26114
C     0.83059   3.49998  -0.46324
H     0.91712   4.53985  -0.78117
H     1.35239   3.39601   0.49484
C     1.50141   2.58789  -1.49490
H     2.43693   3.05963  -1.82516
H     0.85256   2.46729  -2.36852
N     1.77055   1.26356  -0.92307
H     2.39359   1.38742  -0.11696
H     2.28273   0.70329  -1.60655
O     0.58323   0.59752   1.42313
