51

Pd    0.00000   0.00000   0.00000
Br   -1.52380   1.84123  -0.35998
N     2.12893  -1.64847   1.23374
N     1.29228  -2.72219  -0.43264
N    -1.62016  -2.12057  -0.98380
N    -2.68567  -1.44889   0.75709
C     1.19478  -1.57361   0.27024
C     2.81546  -2.82734   1.13971
H     3.61093  -3.08518   1.80798
C     2.29386  -3.50552   0.09418
H     2.54708  -4.46042  -0.31759
C     0.53926  -3.15148  -1.59493
H     0.12774  -4.14670  -1.38082
H     1.22991  -3.23994  -2.44226
C    -0.60141  -2.21252  -2.00276
H    -0.20351  -1.19594  -2.20165
H    -1.05258  -2.59598  -2.92150
C    -1.56941  -1.24852   0.04809
C    -2.76589  -2.87080  -0.90953
H    -3.01383  -3.61866  -1.63445
C    -3.43577  -2.44532   0.18580
H    -4.37738  -2.75142   0.59176
C     2.40399  -0.59598   2.19268
H     2.87585   0.24221   1.66525
H     3.10703  -0.99361   2.92938
C     1.13834  -0.12697   2.87556
C     0.59234   1.12816   2.59090
H     1.09994   1.81290   1.91524
C    -0.54220   1.55918   3.26807
H    -0.95318   2.53397   3.05101
C    -1.13950   0.74582   4.21737
H    -2.01796   1.08714   4.74470
C    -0.60869  -0.50424   4.49084
H    -1.06793  -1.13786   5.23608
C     0.52096  -0.94018   3.82015
H     0.93912  -1.91295   4.04307
C    -3.07251  -0.69958   1.93365
H    -2.44021   0.19505   1.96322
H    -2.87201  -1.30291   2.82646
C    -4.52699  -0.31630   1.86739
C    -4.93882   0.66725   0.97619
H    -4.20735   1.17588   0.36578
C    -6.27806   1.00103   0.88457
H    -6.59008   1.76801   0.19234
C    -7.21312   0.35899   1.67984
H    -8.25818   0.62176   1.60832
C    -6.80600  -0.61816   2.57191
H    -7.53083  -1.11864   3.19742
C    -5.46698  -0.95710   2.66298
H    -5.15066  -1.72014   3.36174
O     1.33075   0.80727  -0.54765
