57

Ir    0.00000   0.00000   0.00000
P     1.76827   0.61180   1.24366
O     3.05983  -0.11818   0.62283
O     2.02733   2.16426   0.99325
O     2.09112   0.62195   2.81345
N    -1.36294   0.61585   1.52163
N    -0.52302  -1.84400   0.94140
C     1.53105  -0.71033  -1.17761
C     1.39696  -1.29298  -2.43507
H     0.42083  -1.32483  -2.89472
C     2.48347  -1.82970  -3.11006
H     2.33916  -2.27416  -4.08371
C     3.74475  -1.79389  -2.54540
H     4.59399  -2.20867  -3.06702
C     3.91976  -1.21349  -1.30011
H     4.89213  -1.15948  -0.83482
C     2.82606  -0.68336  -0.64006
C     0.39905   1.86115  -0.78992
C    -0.23592   2.43565  -1.88732
H    -0.96055   1.85463  -2.43651
C     0.03907   3.73398  -2.29087
H    -0.47577   4.14621  -3.14598
C     0.96781   4.49739  -1.60833
H     1.18682   5.50749  -1.92000
C     1.62798   3.95654  -0.51731
H     2.36559   4.52038   0.03285
C     1.33976   2.66158  -0.12709
C     1.66565  -1.71921   3.20691
H     2.14401  -1.96536   2.27055
C     1.13204  -2.70573   4.01778
H     1.18353  -3.73766   3.70416
C     0.53457  -2.37207   5.22107
H     0.11654  -3.14380   5.84931
C     0.48263  -1.04654   5.62056
H     0.02433  -0.78176   6.56147
C     1.00998  -0.05307   4.81551
H     0.96898   0.98533   5.10544
C     1.60024  -0.39201   3.60517
C    -1.63258   1.87732   1.83913
H    -1.37121   2.61729   1.09484
C    -2.21333   2.24226   3.03824
H    -2.41384   3.28027   3.24890
C    -2.52318   1.24776   3.95741
H    -2.95904   1.49457   4.91352
C    -2.26604  -0.06765   3.62284
H    -2.48470  -0.85980   4.32022
C    -1.69678  -0.35971   2.38439
C    -1.40002  -1.72614   1.95040
C    -1.99898  -2.84775   2.52230
H    -2.72718  -2.73498   3.30877
C    -1.67585  -4.10395   2.04690
H    -2.13562  -4.98378   2.47092
C    -0.76215  -4.21011   1.00749
H    -0.48614  -5.16944   0.60071
C    -0.21832  -3.05134   0.48518
H     0.48513  -3.08205  -0.33583
O    -1.22463  -0.37472  -1.04037
