45

Cd    0.00000   0.00000   0.00000
Cl    1.56813   1.30543   1.19983
C     1.08970  -2.69318  -1.39686
O     1.66862  -4.78831  -2.12569
C     4.10438  -2.89896  -5.21329
H     4.68737  -3.43951  -5.94372
N     1.86880   0.57453  -2.43920
H     1.31597   1.08862  -1.74982
N     1.08050  -1.36537  -1.39778
C     0.43353  -3.65535  -0.55440
C     2.60971  -1.45766  -3.33950
C     1.82250  -0.70315  -2.35351
C     3.36794  -3.58482  -4.27904
H     3.35333  -4.66343  -4.25149
C     4.10353  -1.50254  -5.22353
H     4.68726  -0.97676  -5.96381
C     1.82451  -3.46849  -2.32908
C     3.36601  -0.79017  -4.29949
H     3.35285   0.28764  -4.29203
C     2.61302  -2.87182  -3.33185
C     0.83118  -4.91566  -1.05883
C     0.42751  -6.13628  -0.54418
H     0.77677  -7.05326  -0.98836
C    -1.09042  -2.69318   1.39629
O    -1.66919  -4.78830   2.12524
C    -4.10524  -2.89891   5.21260
H    -4.68818  -3.43945   5.94309
N    -1.86987   0.57453   2.43837
H    -1.31705   1.08868   1.74903
N    -1.08129  -1.36537   1.39712
C    -0.43410  -3.65535   0.55394
C    -2.61064  -1.45765   3.33874
C    -1.82344  -0.70313   2.35274
C    -3.36874  -3.58479   4.27841
H    -3.35407  -4.66340   4.25093
C    -4.10451  -1.50249   5.22272
H    -4.68828  -0.97670   5.96297
C    -1.82522  -3.46849   2.32851
C    -3.36703  -0.79014   4.29865
H    -3.35396   0.28767   4.29108
C    -2.61384  -2.87180   3.33118
C    -0.83166  -4.91566   1.05844
C    -0.42784  -6.13628   0.54391
H    -0.77700  -7.05326   0.98817
O    -1.09278   0.91126  -0.83543
