64

Pd    0.00000   0.00000   0.00000
Cl    0.24099  -2.22116   0.45930
P     2.10476  -0.00038   0.69726
P    -0.11279   2.20773  -0.23321
O     2.84973   1.43836   0.97253
C     3.06361  -0.60679  -0.73037
C     4.43582  -0.81636  -0.64565
C     5.13964  -1.21829  -1.76629
C     4.47803  -1.40865  -2.96956
C     3.11168  -1.19394  -3.05801
C     2.40148  -0.78821  -1.94158
C     2.77146  -0.86017   2.13985
C     3.11058  -2.20560   2.04760
C     3.56172  -2.87579   3.16962
C     3.66727  -2.21273   4.38204
C     3.31376  -0.87654   4.47706
C     2.85784  -0.19985   3.36036
C     1.43246   3.11715  -0.05339
C     2.58937   2.67585   0.46530
C     3.77602   3.54949   0.55453
C     3.65578   4.90313   0.86242
C     4.78066   5.70290   0.93693
C     6.03636   5.16528   0.70515
C     6.16401   3.81949   0.40410
C     5.04324   3.01379   0.33435
C    -1.06040   2.79136   1.20939
C    -1.42166   1.86059   2.18117
C    -2.12089   2.27329   3.30200
C    -2.45629   3.60889   3.45648
C    -2.09535   4.53634   2.49118
C    -1.39585   4.13249   1.36918
C    -0.87964   3.00485  -1.66178
C    -0.09908   3.35765  -2.75865
C    -0.69750   3.88858  -3.88642
C    -2.07263   4.05406  -3.92865
C    -2.85279   3.68034  -2.84584
C    -2.26246   3.14982  -1.71417
H     4.93846  -0.67322   0.30187
H     6.20449  -1.38842  -1.70189
H     5.02975  -1.72856  -3.84107
H     2.59978  -1.34583  -3.99651
H     1.31307  -0.63033  -2.00604
H     3.00302  -2.71964   1.10392
H     3.82580  -3.92041   3.09958
H     4.01802  -2.74042   5.25672
H     3.38561  -0.36323   5.42482
H     2.57091   0.84047   3.42874
H     1.40758   4.14079  -0.40458
H     2.68172   5.32139   1.06717
H     4.67817   6.74944   1.18231
H     6.91271   5.79302   0.76400
H     7.14058   3.39551   0.22407
H     5.13957   1.96588   0.09277
H    -1.17151   0.79625   2.04509
H    -2.40985   1.55280   4.05255
H    -3.00578   3.92848   4.32945
H    -2.36362   5.57557   2.61315
H    -1.11993   4.84770   0.60604
H     0.97294   3.20677  -2.72443
H    -0.09221   4.16538  -4.73739
H    -2.53798   4.46409  -4.81282
H    -3.92573   3.79364  -2.88809
H    -2.86407   2.83099  -0.87518
O    -1.50497  -0.09741  -0.66939
