45

Co    0.00000   0.00000   0.00000
O    -0.13748   2.44639  -1.24031
N     0.55404   1.67866  -0.47530
C     1.70810   2.13561   0.09034
C     2.19661   1.20026   1.11704
N     1.34605   0.15876   1.25637
O     1.69385  -0.79138   2.15601
C     2.28918   3.30252  -0.27228
C     3.32047   1.37451   1.85605
O    -0.11788  -2.40891   1.45743
N    -0.57152  -1.75348   0.45118
C    -1.44741  -2.27355  -0.36255
C    -1.86819  -1.39873  -1.41928
N    -1.34156  -0.21975  -1.37214
O    -1.69189   0.68850  -2.34054
C    -1.96246  -3.66883  -0.21378
C    -2.82767  -1.83847  -2.47103
N    -1.37501   0.88219   1.19161
N    -2.09923   1.86949   0.63222
C    -3.02105   2.35159   1.48050
C    -2.89596   1.61875   2.64316
C    -1.84828   0.71308   2.42577
C    -3.94442   3.44833   1.10218
C    -1.30049  -0.25381   3.40676
H     1.03322  -1.57110   1.99875
H     3.96683   2.21637   1.70665
H     3.59025   0.65347   2.60470
H     3.20134   3.64779   0.17294
H     1.84575   3.89747  -1.05181
H    -1.09580   1.47795  -2.16704
H    -3.08437  -1.00049  -3.11321
H    -3.72879  -2.24473  -2.01611
H    -2.36906  -2.62016  -3.07496
H    -3.03171  -3.66817  -0.00442
H    -1.43832  -4.14461   0.61227
H    -1.78774  -4.23883  -1.12422
H    -1.82333   2.25663  -0.26909
H    -3.47322   1.72014   3.53854
H    -3.40215   4.24586   0.59763
H    -4.71305   3.07941   0.42301
H    -4.42913   3.85009   1.98716
H    -1.91748  -0.25960   4.30063
H    -0.28490   0.02699   3.68170
H    -1.25996  -1.25918   2.99482
O     1.09110  -0.67385  -1.03823
