44

Rh    0.00000   0.00000   0.00000
Cl    1.43104   0.30843   1.79102
Cl   -1.40091  -0.44246  -1.79606
S     1.34677  -1.73301  -0.69764
S    -1.30619  -1.36432   1.27485
O     2.43721  -1.35181  -1.58034
O    -0.92642  -2.77186   1.21704
N     0.17565   3.53199  -1.09759
C     1.21205   1.33335  -1.23372
C     1.04465   2.62993  -0.71263
C    -0.83851   3.25299  -2.09490
C    -0.34464   3.57428  -3.50285
C     0.13488   4.83735  -0.46945
C    -0.82954   4.87984   0.71173
C     2.09923  -2.69003   0.64957
C     0.47440  -3.09135  -1.52933
C    -1.38136  -0.92825   3.03558
C    -3.08404  -1.30420   0.90840
H     2.21099   0.93249  -1.07666
H     0.84871   1.16240  -2.24451
H     1.69508   2.93147   0.10327
H    -1.13173   2.20309  -2.02398
H    -1.71435   3.85979  -1.86048
H    -1.12758   3.34771  -4.22021
H     0.53118   2.98063  -3.74996
H    -0.08422   4.62687  -3.59365
H    -0.16782   5.56452  -1.22724
H     1.14014   5.09535  -0.12785
H    -0.51898   4.17173   1.47357
H    -1.83406   4.60842   0.40197
H    -0.84696   5.87937   1.13670
H     2.66727  -2.00244   1.26716
H     2.75323  -3.42730   0.19953
H     1.30007  -3.14807   1.21958
H     1.21600  -3.82514  -1.82143
H    -0.24780  -3.49907  -0.83217
H    -0.02161  -2.68288  -2.40320
H    -1.97357  -1.68203   3.54060
H    -1.81852   0.05973   3.11851
H    -0.36465  -0.91662   3.41510
H    -3.58407  -1.99833   1.57313
H    -3.42248  -0.28461   1.05003
H    -3.21687  -1.59884  -0.12744
O    -1.03831   1.14586   0.57568
