65

Pt    0.00000   0.00000   0.00000
P     0.94364   1.38360   1.56741
P    -0.94355  -1.39876  -1.55423
C     2.13056   0.47083   2.68172
C    -2.22509  -2.52360  -0.79524
C     1.71876   2.96611   0.95112
C    -1.60761  -0.61652  -3.11377
C    -0.41233   1.98234   2.69369
C     0.38771  -2.53858  -2.18193
C     2.85083   1.29336   3.74191
C    -2.95094  -3.47530  -1.73689
C     3.10184  -0.35132   1.83635
C    -3.19701  -1.70119   0.04908
C     3.01967   2.64373   0.22023
C    -2.88636   0.15287  -2.79235
C     1.90596   4.10446   1.94865
C    -1.78513  -1.50742  -4.33878
C    -0.95684   0.85677   3.56739
C     0.83786  -3.52302  -1.10723
C    -1.51121   2.50297   1.76787
C     1.55100  -1.62966  -2.57732
H    -0.05375  -1.12095   1.03220
H     1.46544  -0.24305   3.18383
H    -1.62062  -3.11519  -0.09612
H     0.99972   3.29531   0.18988
H    -0.83687   0.13019  -3.34457
H    -0.04544   2.78949   3.33640
H     0.03122  -3.09758  -3.05352
H     3.35111   0.62674   4.44416
H    -3.51482  -4.20478  -1.15575
H     2.15292   1.91205   4.30243
H    -2.24947  -4.01642  -2.36865
H     3.60963   1.93135   3.29557
H    -3.65635  -2.94077  -2.36833
H     3.54539  -1.14650   2.43355
H    -3.70808  -2.33910   0.76854
H     3.90532   0.26043   1.43664
H    -3.94854  -1.21208  -0.56381
H     2.56065  -0.80572   1.00178
H    -2.64183  -0.93562   0.59815
H     3.32205   3.48943  -0.39566
H    -3.11424   0.85161  -3.59597
H     2.87352   1.78577  -0.43595
H    -2.75317   0.72735  -1.87568
H     3.82592   2.42800   0.91819
H    -3.73567  -0.51702  -2.67534
H     2.36214   4.94715   1.42950
H    -2.16945  -0.89793  -5.15644
H     2.55842   3.82740   2.77135
H    -2.49232  -2.31251  -4.16270
H     0.95633   4.44535   2.35383
H    -0.84084  -1.93565  -4.66602
H    -1.88099   1.17558   4.04767
H     1.75310  -4.02211  -1.42281
H    -0.25264   0.57741   4.34749
H     0.08626  -4.28671  -0.92193
H    -1.17167  -0.01866   2.95483
H     1.03873  -2.99157  -0.17715
H    -2.39704   2.79205   2.33206
H     2.42406  -2.21225  -2.86874
H    -1.78874   1.71086   1.06263
H     1.82015  -1.00111  -1.72046
H    -1.17306   3.36233   1.19220
H     1.28198  -0.97455  -3.40354
O     0.05806   1.21319  -1.11682
