30

V     0.00000   0.00000   0.00000
N    -0.42029   1.21177   1.11070
S    -0.47023   1.36083   2.64007
N    -0.00014   0.00001   3.32516
C    -0.20625  -1.63576  -2.79493
C     0.06170  -2.60935  -3.74346
C     1.13125  -3.46502  -3.53576
C     1.88833  -3.30303  -2.38723
C     1.54852  -2.29514  -1.49891
N     0.52092  -1.47586  -1.69499
H    -1.04771  -0.96503  -2.92760
H    -0.56206  -2.69369  -4.61915
H     1.36692  -4.23928  -4.25059
H     2.73063  -3.94314  -2.17809
H     2.12814  -2.13738  -0.59664
Br    2.31035   0.82650  -0.29886
N     0.41996  -1.21185   1.11075
N    -0.52117   1.47584  -1.69499
S     0.46990  -1.36085   2.64012
C     0.20604   1.63578  -2.79491
C    -1.54876   2.29513  -1.49891
C    -0.06191   2.60938  -3.74343
H     1.04749   0.96504  -2.92758
C    -1.88855   3.30305  -2.38722
H    -2.12837   2.13740  -0.59663
C    -1.13146   3.46505  -3.53574
H     0.56186   2.69372  -4.61912
H    -2.73083   3.94317  -2.17807
H    -1.36712   4.23931  -4.25057
O    -1.54231  -0.55141  -0.19932
