20

W     0.00000   0.00000   0.00000
Cl    1.90345  -1.31359   0.60536
Cl   -1.34831  -1.61170   0.86183
S     0.82484   0.08898  -3.09470
S     1.83725   2.19987  -1.38260
N     0.14234  -0.45478  -1.78518
N     1.63572   1.41464  -2.74451
N     1.07969   1.52420  -0.19808
N    -0.06534   0.72135   2.13842
C     0.23497  -0.09648   3.15459
C     0.20313   0.30989   4.47740
C    -0.15708   1.61545   4.77304
C    -0.46600   2.46568   3.72255
C    -0.40621   1.98228   2.42722
H     0.51388  -1.11442   2.89537
H     0.45501  -0.39035   5.25742
H    -0.19606   1.96085   5.79491
H    -0.75285   3.48977   3.89915
H    -0.64495   2.62025   1.58193
O    -1.35944   0.90051  -0.25201
