31

Pd    0.00000   0.00000   0.00000
N     0.69431   1.80291  -0.17460
O     2.33219  -0.23972  -0.32940
C    -1.78977   0.95691   0.24112
H    -2.72215   0.44088  -0.00669
H    -1.74568   1.18234   1.32188
C    -1.60955   2.18865  -0.56069
O    -2.43020   2.69371  -1.29743
C    -0.21559   2.75146  -0.42817
C     0.14685   4.07782  -0.59764
H    -0.60957   4.81060  -0.82803
C     1.48547   4.41115  -0.45879
H     1.80935   5.43527  -0.55952
C     2.41673   3.41340  -0.19744
H     3.45739   3.66601  -0.08499
C     1.99337   2.09613  -0.08277
C     2.95023   0.92855   0.20960
O     3.17288   0.78693   1.59660
C     4.33003   1.16027  -0.41271
H     4.81105   2.00424   0.06884
H     4.23028   1.34192  -1.47915
H     4.95336   0.28754  -0.24600
C     2.03730   0.61096   2.42827
H     1.47325   1.54707   2.53575
H     2.43726   0.32373   3.39878
H     1.36658  -0.19947   2.06955
C     3.05042  -1.46272  -0.17090
H     3.76527  -1.59145  -0.98799
H     2.30770  -2.26201  -0.20904
H     3.56614  -1.48797   0.79170
O    -0.46007  -1.57819   0.14191
