57

C     3.02783   0.30239  -0.59894
C     3.51186  -0.97120  -0.05337
C     2.84409  -1.97975   0.61653
H     1.77362  -1.92778   0.75741
C     3.57149  -3.06211   1.08976
H     3.05913  -3.86074   1.60528
C     4.94492  -3.13443   0.90921
H     5.48888  -3.98712   1.28873
C     5.62767  -2.12558   0.24510
H     6.69755  -2.18323   0.10784
C     4.90927  -1.04795  -0.23749
C     5.33336   0.11882  -0.99497
C     6.56774   0.48607  -1.49573
H     7.44700  -0.10630  -1.29056
C     6.65430   1.62441  -2.28565
H     7.61211   1.92898  -2.68162
C     5.51954   2.35263  -2.60852
H     5.59870   3.20500  -3.26764
C     4.27726   1.98925  -2.10844
H     3.39112   2.52843  -2.42279
C     4.19130   0.90573  -1.25489
C     1.78770   0.80651  -0.38582
C     0.03599   3.03408   0.34617
C     0.34861   3.42480   1.64381
H     1.38169   3.45395   1.96535
C    -0.66558   3.75909   2.52369
H    -0.42305   4.05093   3.53492
C    -1.98640   3.71083   2.11074
H    -2.77590   3.96334   2.80233
C    -2.29853   3.33096   0.81424
H    -3.32826   3.28309   0.49538
C    -1.29305   2.99020  -0.06888
H    -1.53568   2.67198  -1.07367
C     2.63587   3.73852  -0.40984
C     3.36352   5.83751  -0.86703
H     3.21117   6.74024  -1.44402
C     4.40919   5.72578   0.03759
H     5.09880   6.54289   0.17974
C     4.54504   4.54414   0.75173
H     5.34512   4.42001   1.46677
C     3.63863   3.52208   0.52861
H     3.70322   2.57602   1.04736
C     0.75530   2.72815  -2.43758
C     0.82915   1.67292  -3.34005
H     1.24948   0.72727  -3.02305
C     0.35982   1.84752  -4.62930
H     0.40986   1.03176  -5.33452
C    -0.17464   3.06786  -5.01123
H    -0.54125   3.20134  -6.01813
C    -0.24509   4.11752  -4.10741
H    -0.66498   5.06472  -4.41186
C     0.21422   3.95404  -2.81377
H     0.16762   4.76049  -2.09696
N     2.49392   4.86766  -1.08568
P     1.35896   2.47580  -0.76098
Au    0.00000   0.00000   0.00000
O    -1.55760  -0.50071   0.21372
