53

Zn    0.00000   0.00000   0.00000
Cl   -0.41900  -1.82407  -1.16237
S     0.01792   1.94553   4.52798
S     2.78662   0.11628   3.57819
S     0.32213   4.16722   2.55403
N     1.17028   1.74655   2.12675
N     1.52813  -0.39716   1.36964
C     3.80646  -3.65407   2.50134
C     3.05609  -3.74626   1.33211
C     0.59796   2.51400   2.96985
C     2.24963  -1.52673   1.65245
C     3.79650  -2.49930   3.26201
C     3.01359  -1.44255   2.83088
C     2.27802  -2.69362   0.89542
C     1.68395   0.53508   2.26245
C     1.19975   4.29677   0.98487
H     0.94842   5.27305   0.58287
H     0.87404   3.50345   0.30953
H     2.26648   4.22519   1.17330
C    -0.83936   3.39316   5.19953
H     4.40639  -4.49286   2.81997
H    -0.13435   4.20738   5.33277
H     1.69201  -2.75420  -0.00812
H    -1.64345   3.68183   4.52881
H     4.37757  -2.41496   4.16674
H     3.08360  -4.65771   0.75557
H    -1.23949   3.07579   6.15737
S    -0.01651  -1.94454   4.52776
S    -2.78562  -0.11537   3.57876
S    -0.32202  -4.16673   2.55457
N    -1.16997  -1.74602   2.12701
N    -1.52782   0.39763   1.36973
C    -3.80525   3.65503   2.50188
C    -3.05522   3.74700   1.33241
C    -0.59736  -2.51336   2.97003
C    -2.24906   1.52734   1.65265
C    -3.79527   2.50030   3.26262
C    -3.01265   1.44339   2.83132
C    -2.27751   2.69417   0.89553
C    -1.68347  -0.53447   2.26272
C    -1.20055  -4.29652   0.98594
H    -0.94988  -5.27305   0.58428
H    -0.87484  -3.50370   0.31006
H    -2.26709  -4.22442   1.17480
C     0.84082  -3.39217   5.19924
H    -4.40491   4.49395   2.82066
H     0.13524  -4.20564   5.33469
H    -1.69178   2.75458  -0.00820
H     1.64345  -3.68228   4.52731
H    -4.37609   2.41610   4.16752
H    -3.08271   4.65844   0.75585
H     1.24298  -3.07407   6.15598
O     0.31366   1.36582  -0.87101
