50

Pd    0.00000   0.00000   0.00000
Cl    1.59129   1.57508   0.14483
N     0.98986  -1.20101   1.35994
N    -0.92237  -1.61595   2.61195
N     0.82421  -3.16309   2.61513
N    -1.44986  -1.56512  -0.07350
N    -2.66985  -0.37030   1.48073
N    -3.70636  -1.02297  -0.50741
C     0.31989  -1.98339   2.14937
C    -1.76297  -2.61347   3.23626
H    -2.11110  -3.34744   2.49837
H    -2.63555  -2.11084   3.65383
C    -0.94401  -3.30039   4.31965
H    -0.56804  -2.54647   5.01264
H    -1.54034  -4.02242   4.87585
C     0.20960  -4.00039   3.62379
H     0.98206  -4.28430   4.34956
H    -0.15295  -4.92369   3.14739
C     2.02164  -3.75580   2.04461
H     1.82607  -4.82146   1.87075
H     2.84009  -3.68068   2.77407
C     2.41592  -3.06848   0.74882
H     3.41531  -3.37725   0.44634
H     1.70950  -3.32683  -0.04360
C     2.34567  -1.56745   1.00018
H     3.02720  -1.28601   1.81376
H     2.62470  -0.99327   0.11135
C    -1.51852  -0.33187   2.38263
H    -0.73569   0.38561   2.03413
H    -1.91776   0.02831   3.34218
C    -2.55912  -0.95470   0.22760
C    -1.35286  -2.32736  -1.30322
H    -1.58011  -3.38042  -1.07772
H    -0.30855  -2.27041  -1.64481
C    -2.29952  -1.79576  -2.37149
H    -1.99596  -0.77965  -2.63517
H    -2.28494  -2.42492  -3.26056
C    -3.69366  -1.75925  -1.76374
H    -4.39142  -1.28214  -2.45394
H    -4.04720  -2.78131  -1.56796
C    -4.70777   0.02498  -0.42158
H    -5.65047  -0.37891  -0.80102
H    -4.40160   0.86964  -1.05385
C    -4.87287   0.49062   1.01400
H    -5.31367  -0.30609   1.61620
H    -5.52349   1.36349   1.05137
C    -3.49513   0.82663   1.55801
H    -3.03666   1.63982   0.97570
H    -3.56043   1.13639   2.60359
O    -0.91366   0.93951  -1.00252
