28

Pd    0.00000   0.00000   0.00000
Cl    1.91472  -0.00072   1.14097
S    -2.07300  -0.00059  -1.09849
S     1.30626  -0.00059  -1.95037
C    -1.90410  -1.27525  -2.39180
C    -0.86015  -0.78695  -3.39991
C     0.54354  -1.26814  -3.01340
C    -0.74485  -0.00056  -5.68975
C    -1.19067  -1.19365  -4.84773
H    -1.63886  -2.21909  -1.91620
H    -2.88615  -1.37948  -2.85657
H     1.18194  -1.36138  -3.89340
H     0.53959  -2.21783  -2.47907
H    -1.19417  -0.00056  -6.68061
H     0.33940  -0.00056  -5.80849
H    -0.69849  -2.12182  -5.13281
H    -2.26641  -1.33355  -4.96123
C    -1.90410   1.27409  -2.39179
C     0.54355   1.26698  -3.01340
C    -0.86015   0.78581  -3.39990
C    -1.19067   1.19253  -4.84773
H    -1.63887   2.21793  -1.91619
H    -2.88616   1.37832  -2.85655
H     1.18195   1.36022  -3.89339
H     0.53960   2.21667  -2.47907
H    -0.69849   2.12069  -5.13281
H    -2.26641   1.33242  -4.96122
O    -0.84803  -0.00053   1.41539
