55

Pd    0.00000   0.00000   0.00000
S    -0.50255  -2.18686   0.51982
O     0.71524  -5.65718  -1.36325
C     1.29140  -3.40087  -1.10717
C     0.98082  -3.21158   0.37922
C    -1.20423  -3.00844  -0.94139
C    -0.06897  -3.46933  -1.86877
C    -0.19402  -4.97919  -2.19955
C     1.84831  -4.82664  -1.30553
C     2.24740  -2.31583  -1.63193
C     1.53309  -1.08384  -2.11776
C     0.43692  -1.22635  -2.86090
C    -0.05628  -2.61462  -3.14581
H     1.78869  -2.73694   0.93291
H     0.72415  -4.16826   0.83990
H    -1.77361  -3.85427  -0.55289
H    -1.88629  -2.30821  -1.42236
H    -1.18776  -5.38861  -2.01843
H     0.07074  -5.15326  -3.25308
H     2.41203  -4.88856  -2.24878
H     2.48263  -5.16409  -0.48650
H     2.96621  -2.05574  -0.85430
H     2.80996  -2.72462  -2.47930
H     2.01760  -0.12038  -1.96502
H    -0.08081  -0.38745  -3.30532
H    -1.05351  -2.60135  -3.58608
H     0.62578  -3.07316  -3.87115
Cl    2.02756  -0.19056   1.10624
S     0.50330   2.18694  -0.51971
C    -0.98016   3.21149  -0.37906
C     1.20393   3.00846   0.94198
C    -1.29138   3.40099   1.10721
H    -1.78788   2.73675  -0.93288
H    -0.72360   4.16818  -0.83978
C     0.06868   3.46974   1.86927
H     1.77377   3.85411   0.55391
H     1.88564   2.30815   1.42332
C    -1.84850   4.82670   1.30542
C    -2.24768   2.31607   1.63180
C     0.19359   4.97959   2.20004
C     0.05549   2.61511   3.14636
O    -0.71555   5.65734   1.36336
H    -2.41262   4.88881   2.24844
H    -2.48256   5.16401   0.48612
C    -1.53335   1.08421   2.11776
H    -2.96622   2.05582   0.85395
H    -2.81052   2.72489   2.47899
H     1.18731   5.38908   2.01900
H    -0.07149   5.15385   3.25345
C    -0.43731   1.22675   2.86112
H     1.05260   2.60194   3.58696
H    -0.62689   3.07354   3.87149
H    -2.01773   0.12067   1.96498
H     0.08042   0.38784   3.30552
O    -1.44362   0.13623  -0.78733
