58

Pd    0.00000   0.00000   0.00000
Cl    0.19894  -0.86039  -2.08743
P    -0.02157   1.03599   1.96873
N    -2.22314   1.56454  -1.16052
N    -3.58481   1.63876  -1.23100
C    -1.84713   0.48339  -0.47989
C    -4.08973   0.56116  -0.57805
C    -3.03071  -0.18312  -0.10196
C    -1.35553   2.49190  -1.82562
C    -4.26709   2.72574  -1.86395
C    -5.55016   0.32615  -0.44828
C    -3.03097  -1.47843   0.63996
C    -1.43853   2.17271   2.14659
C    -1.38190   3.47273   1.65334
C    -2.52788   4.24518   1.58645
C    -3.74390   3.72607   2.00056
C    -3.80777   2.43293   2.49562
C    -2.66473   1.66015   2.56321
C     1.41015   2.14699   2.09190
C     1.91939   2.60802   0.87831
C     2.99980   3.46796   0.86052
C     3.58380   3.86549   2.05409
C     3.09042   3.39613   3.25927
C     2.00321   2.53853   3.28398
C    -0.09978   0.04058   3.47810
C    -0.39534   0.58738   4.72435
C    -0.45107  -0.23339   5.83581
C    -0.22528  -1.59550   5.70821
C     0.04298  -2.14487   4.46475
C     0.10202  -1.33004   3.34850
H    -1.35523   3.46449  -1.32647
H    -1.64509   2.61243  -2.87049
H    -0.34715   2.05326  -1.79394
H    -4.09617   2.72160  -2.94380
H    -3.92475   3.67823  -1.45281
H    -5.33388   2.62909  -1.68028
H    -6.02386   0.25164  -1.42672
H    -6.02526   1.13491   0.10751
H    -5.71546  -0.60381   0.08697
H    -1.98453  -1.78806   0.78059
H    -3.54659  -2.25199   0.07279
H    -3.51044  -1.38623   1.61415
H    -0.43266   3.87760   1.32748
H    -2.47355   5.25719   1.20959
H    -4.63822   4.32948   1.94244
H    -4.75298   2.02682   2.82612
H    -2.70977   0.64876   2.94306
H     1.47997   2.24326  -0.05624
H     3.39943   3.81695  -0.08030
H     4.43580   4.52917   2.04202
H     3.55925   3.69196   4.18657
H     1.63476   2.15881   4.22563
H    -0.59699   1.64667   4.81573
H    -0.67338   0.18907   6.80525
H    -0.26638  -2.22976   6.58160
H     0.20609  -3.20785   4.36695
H     0.31800  -1.74014   2.36381
O     1.51188  -0.45680   0.47756
