27

O    -1.57812  -0.32166   2.53808
O     1.92991   2.27176   0.38745
C    -1.29584   0.94210  -0.98238
H     1.66266   0.21445   2.97772
H     1.29036  -2.63640  -1.07055
H     3.24075  -0.44540   4.77732
H     2.75709  -4.61826  -1.06252
H     4.60361  -2.46112   4.58509
H     2.99226  -5.27347   0.57134
H     4.28464  -4.33267  -0.20274
H     4.46423  -3.91946   2.59480
Ru    0.00000   0.00000   0.00000
Cl   -1.33299  -1.86501  -0.59062
N     1.42060  -1.39464   0.63951
C     1.17189   1.42836   0.30724
N     2.65307  -3.22273   0.45931
C     2.18613  -1.49472   1.77589
C     2.97640  -2.65819   1.67094
C    -0.94929  -0.13853   1.60883
C     1.72767  -2.43276  -0.10724
O    -2.04574   1.34241  -1.72833
C     3.86008  -3.02968   2.67532
C     2.26908  -0.67711   2.89896
C     3.20343  -4.42992  -0.08857
C     3.92965  -2.20832   3.78129
C     3.14879  -1.05378   3.89106
O     0.77039  -0.04623  -1.45838
