63

Ni    0.00000   0.00000   0.00000
S     0.74352   1.44988  -2.74030
S     4.33640   2.25066  -5.12104
P     0.25800   1.92406   0.99558
P    -0.20518  -1.87257  -1.10464
O     5.97171   3.34924  -7.49916
C     1.20446   0.54335  -1.32534
C     2.56308   0.33823  -1.33209
H     3.08846  -0.18448  -0.54755
C     3.22698   0.87758  -2.44475
H     4.28836   0.80103  -2.60722
C     2.38924   1.52123  -3.32187
C     2.70319   2.17283  -4.54185
C     1.83004   2.80435  -5.40974
H     0.77132   2.86153  -5.22570
C     2.46427   3.34271  -6.52401
H     1.95317   3.87064  -7.30993
C     3.82905   3.13558  -6.53254
C     4.77854   3.55135  -7.52381
H     4.30579   4.10440  -8.36247
C    -1.39081   2.74069   0.88024
H    -2.01491   2.33030   1.67891
H    -1.29170   3.81839   1.02870
C    -2.01234   2.42554  -0.47746
H    -3.04664   2.75965  -0.52337
H    -1.99882   1.33824  -0.64715
H    -1.45711   2.89970  -1.28557
C     0.61403   1.96069   2.80077
H     0.58761   2.99862   3.14026
H    -0.18626   1.41086   3.30211
C     1.95646   1.30625   3.10329
H     2.15040   1.30711   4.17364
H     2.77260   1.82561   2.60332
H     1.94750   0.27107   2.76200
C     1.40892   3.19159   0.29325
H     2.37911   2.70877   0.14406
H     1.01716   3.43195  -0.69992
C     1.58574   4.46978   1.10101
H     2.15425   5.19088   0.51611
H     2.13206   4.28438   2.02244
H     0.62833   4.92261   1.35068
C    -1.60569  -2.99650  -0.66266
H    -1.46142  -3.25460   0.39020
H    -2.52354  -2.40285  -0.71076
C    -1.75058  -4.26167  -1.49683
H    -2.52265  -4.88905  -1.05582
H    -0.82756  -4.83711  -1.51945
H    -2.04548  -4.04069  -2.51950
C    -0.18875  -1.91382  -2.94527
H     0.71630  -1.40006  -3.27934
H    -0.12056  -2.95430  -3.27184
C    -1.42061  -1.23025  -3.52526
H    -1.36419  -1.19579  -4.61150
H    -1.49166  -0.20761  -3.15556
H    -2.33040  -1.75655  -3.24417
C     1.28888  -2.86930  -0.68812
H     1.11880  -3.92168  -0.92618
H     2.10903  -2.50229  -1.31138
C     1.62408  -2.68767   0.78904
H     2.58674  -3.13216   1.03472
H     0.86154  -3.13902   1.42160
H     1.66653  -1.61536   1.02608
O    -0.99744  -0.47348   1.22615
