70

Cu    0.00000   0.00000   0.00000
Si    0.48698   0.43711   3.22148
H    -0.47673   0.87332   2.20384
P    -0.15337  -2.03369   0.99104
P     1.75065   1.41854   0.20087
C     0.22088   1.55216   4.74553
H    -0.73514   1.33998   5.21254
H     0.21746   2.60008   4.46518
H     0.99557   1.42257   5.49430
C     0.05087  -1.34667   3.71333
C    -0.34109  -2.32727   2.79226
C    -0.81750  -3.55300   3.25187
H    -1.17039  -4.29630   2.55398
C    -0.86481  -3.84003   4.60325
H    -1.23606  -4.79744   4.93935
C    -0.43033  -2.89723   5.51770
H    -0.44850  -3.11500   6.57567
C     0.00421  -1.66466   5.06787
H     0.30794  -0.92382   5.79166
C     2.34095   0.56253   2.79600
C     2.87919   1.02407   1.58602
C     4.26148   1.10337   1.43280
H     4.68336   1.45962   0.50537
C     5.11652   0.73116   2.45295
H     6.18556   0.80353   2.31459
C     4.59531   0.26188   3.64607
H     5.25429  -0.04279   4.44589
C     3.22468   0.18630   3.80610
H     2.82571  -0.18624   4.73923
C    -2.86326  -2.07655   0.69498
H    -2.78773  -1.05942   0.31089
H    -2.93978  -2.03652   1.78201
H    -3.77359  -2.52149   0.29757
C    -1.64023  -2.87851   0.25660
H    -1.72252  -3.91143   0.61264
C    -1.50982  -2.86679  -1.26354
H    -2.40097  -3.29578  -1.71810
H    -0.64487  -3.43778  -1.59834
H    -1.41419  -1.84008  -1.61711
C     1.07401  -4.66870   0.80382
H     1.95732  -5.20345   0.45600
H     0.21818  -5.04068   0.24599
H     0.94037  -4.89605   1.85877
C     1.28255  -3.17417   0.59306
H     1.46999  -2.99256  -0.47438
C     2.48953  -2.68325   1.38781
H     2.35598  -2.88806   2.44908
H     2.61440  -1.60828   1.26530
H     3.39865  -3.18069   1.05380
C     0.74512   3.65025   1.50808
H     1.23264   3.34627   2.43326
H    -0.22544   3.16295   1.44602
H     0.58509   4.72704   1.53950
C     1.60455   3.28081   0.30419
H     1.05404   3.55450  -0.60475
C     2.93772   4.02018   0.34306
H     2.75488   5.09258   0.39610
H     3.53280   3.82822  -0.54651
H     3.51306   3.73073   1.22092
C     1.91831   1.69563  -2.52510
H     2.32356   1.32697  -3.46602
H     1.90714   2.78255  -2.56703
H     0.88914   1.34351  -2.43667
C     2.75763   1.18754  -1.35277
H     3.70535   1.73426  -1.31606
C     3.03472  -0.30541  -1.50580
H     2.08905  -0.84998  -1.51250
H     3.64687  -0.68044  -0.68673
H     3.55257  -0.50498  -2.44266
O    -1.16790   0.58744  -1.00669
