64

Pd    0.00000   0.00000   0.00000
Br    0.93956   1.69211  -1.42232
N    -1.11268   2.66657   1.17071
N    -0.50838   1.17635   2.61515
C    -0.60998   1.44755   1.30089
C    -1.48104   3.26670   2.45743
H    -2.57252   3.34930   2.51325
H    -1.05749   4.26589   2.55462
C    -0.92063   2.27491   3.47532
H    -0.05942   2.67578   4.02329
H    -1.66898   1.93813   4.19895
C    -1.33445   3.45540   0.00650
C    -2.35955   3.12374  -0.87809
C    -2.62339   3.96505  -1.94631
H    -3.40948   3.70152  -2.63899
C    -1.88937   5.12283  -2.15069
C    -0.84876   5.40972  -1.27978
H    -0.23775   6.28299  -1.45520
C    -0.54916   4.59054  -0.20349
C    -3.08054   1.82308  -0.72661
H    -2.35682   1.02235  -0.94579
H    -3.90447   1.74426  -1.42965
H    -3.45804   1.67644   0.28538
C    -2.17007   6.01887  -3.31684
H    -2.09338   7.06517  -3.02859
H    -3.16146   5.83406  -3.72225
H    -1.43935   5.83369  -4.10349
C     0.64015   4.90085   0.65502
H     0.39003   5.60882   1.44738
H     1.41784   5.34804   0.04198
H     1.04447   3.99413   1.09819
C     0.14963   0.00043   3.11279
H     0.10607   0.00048   4.20516
H     1.21367   0.00039   2.79488
N    -1.11305  -2.66573   1.17095
N    -0.50859  -1.17547   2.61537
C    -0.61065  -1.44662   1.30120
C    -1.48115  -3.26590   2.45766
H    -2.57261  -3.34859   2.51347
H    -1.05746  -4.26503   2.55468
C    -0.92068  -2.27408   3.47553
H    -0.05935  -2.67492   4.02335
H    -1.66894  -1.93729   4.19925
C    -1.33472  -3.45461   0.00672
C    -2.35976  -3.12293  -0.87794
C    -2.62349  -3.96416  -1.94624
H    -3.40959  -3.70065  -2.63892
C    -1.88938  -5.12188  -2.15068
C    -0.84878  -5.40876  -1.27975
H    -0.23772  -6.28201  -1.45520
C    -0.54929  -4.58965  -0.20337
C    -3.08066  -1.82222  -0.72649
H    -2.35692  -1.02148  -0.94554
H    -3.90453  -1.74335  -1.42961
H    -3.45826  -1.67564   0.28547
C    -2.17009  -6.01793  -3.31684
H    -2.09337  -7.06423  -3.02860
H    -3.16150  -5.83314  -3.72222
H    -1.43939  -5.83273  -4.10350
C     0.64014  -4.89987   0.65500
H     0.39009  -5.60788   1.44736
H     1.41781  -5.34701   0.04191
H     1.04445  -3.99315   1.09816
O     0.64675  -1.16075  -0.97819
