69

Pd    0.00000   0.00000   0.00000
P     1.61591  -1.28407  -0.89962
C     2.60642  -2.31501   0.28279
C     2.93315  -1.46753   1.51745
O     2.50831  -0.13891   1.27179
C     2.57992   0.69347   2.40581
C     2.14460   2.10101   2.00989
O     0.79933   2.04926   1.59777
C     0.27646   3.29160   1.15556
C    -1.22384   3.10663   0.90277
P    -1.61053   1.29133   0.89212
I    -0.01489   1.57511  -2.08206
C    -2.26497   1.05699   2.57390
C    -1.61520   1.61080   3.67215
C    -2.09433   1.38498   4.94913
C    -3.21845   0.59948   5.14156
C    -3.85849   0.03137   4.05280
C    -3.38292   0.25231   2.77427
C    -3.10705   1.14422  -0.12239
C    -4.16989   2.03522  -0.02237
C    -5.28696   1.85922  -0.81697
C    -5.35238   0.79451  -1.70251
C    -4.30059  -0.10144  -1.79686
C    -3.17828   0.07265  -1.00848
C     0.88741  -2.46224  -2.07382
C     0.66348  -2.01940  -3.37819
C    -0.01373  -2.81889  -4.27861
C    -0.48389  -4.06226  -3.88658
C    -0.28081  -4.49941  -2.58845
C     0.39435  -3.70327  -1.68031
C     3.00945  -0.56355  -1.82749
C     3.71834  -1.34571  -2.73404
C     4.81657  -0.81937  -3.38750
C     5.21962   0.48246  -3.13563
C     4.52540   1.25822  -2.22319
C     3.42480   0.73512  -1.56971
H     3.51274  -2.63820  -0.23654
H     2.03562  -3.19758   0.57500
H     4.01379  -1.46622   1.72716
H     2.41333  -1.85974   2.40316
H     3.61029   0.72379   2.79121
H     1.91191   0.31060   3.19392
H     2.25329   2.77635   2.87307
H     2.77848   2.47171   1.19004
H     0.45788   4.05692   1.92612
H     0.79461   3.60513   0.23780
H    -1.81994   3.58533   1.68430
H    -1.50683   3.52476  -0.06628
H    -0.72643   2.20896   3.52906
H    -1.58496   1.81898   5.79783
H    -3.58882   0.42226   6.14029
H    -4.72646  -0.59384   4.19904
H    -3.87433  -0.20916   1.92839
H    -4.11758   2.85954   0.67604
H    -6.11072   2.55452  -0.74633
H    -6.22737   0.66430  -2.32191
H    -4.35178  -0.93098  -2.48641
H    -2.34283  -0.63188  -1.09109
H     1.02090  -1.04428  -3.68370
H    -0.18136  -2.46531  -5.28524
H    -1.01707  -4.68532  -4.58956
H    -0.65813  -5.46128  -2.27365
H     0.51734  -4.04990  -0.66407
H     3.40258  -2.36169  -2.93316
H     5.35920  -1.42659  -4.09750
H     6.07546   0.89099  -3.65243
H     4.83871   2.27302  -2.02584
H     2.87516   1.33588  -0.85771
O    -0.43505  -1.23072   1.00924
