25

Pd    0.00000   0.00000   0.00000
Cl   -2.04835   0.08205  -1.03914
N     0.16400   1.92536  -0.17532
C     0.81276   2.42678  -1.22282
Cl    1.39005   1.22815  -2.28391
C     0.99701   3.78409  -1.42553
H     1.53235   4.13464  -2.29175
C     0.47202   4.65141  -0.48118
H     0.59156   5.71705  -0.59782
C    -0.20802   4.13139   0.61327
H    -0.62861   4.78057   1.36379
C    -0.34121   2.76060   0.73178
H    -0.86409   2.30151   1.56767
N    -0.24340  -1.89592   0.33310
C     0.16099  -2.77113  -0.58342
Cl    0.86149  -2.03131  -1.94647
C     0.02535  -4.14159  -0.43922
H     0.36996  -4.80457  -1.21477
C    -0.56178  -4.60969   0.72518
H    -0.68750  -5.66960   0.88098
C    -0.98406  -3.69852   1.68545
H    -1.44324  -4.03208   2.60173
C    -0.80805  -2.34738   1.45250
H    -1.11968  -1.59236   2.17063
O     1.43305  -0.04540   0.81659
