64

Ir    0.00000   0.00000   0.00000
H    -0.72018   0.28144   1.33022
P     1.40873   1.73866   0.51339
Si    1.43371  -1.34716   1.21477
N    -1.20887  -1.92000  -0.07882
C     2.81903  -2.49829   0.50431
H     3.80790  -2.17815   0.81620
H     2.80288  -2.49900  -0.58040
H     2.67344  -3.52116   0.83937
C     2.29040  -0.10376   2.40433
C     2.25463   1.25766   2.07549
C     2.87663   2.17767   2.91106
H     2.86241   3.22962   2.67173
C     3.52320   1.76479   4.06448
H     3.99483   2.49414   4.70742
C     3.56829   0.42038   4.38592
H     4.07628   0.09318   5.28153
C     2.95816  -0.50161   3.55182
H     3.00151  -1.55182   3.79902
C     0.07650  -2.50885   1.92036
C    -1.12024  -2.59731   1.20311
C    -2.16056  -3.37431   1.68867
H    -3.09165  -3.45951   1.14872
C    -2.02399  -4.05755   2.88695
H    -2.84635  -4.65192   3.25747
C    -0.84142  -3.98231   3.59744
H    -0.73276  -4.51666   4.52969
C     0.19878  -3.21018   3.10757
H     1.12083  -3.14108   3.66363
C     2.89973   2.10134  -0.60851
C     3.53830   0.73340  -0.85369
H     3.86838   0.28766   0.08257
H     4.40070   0.83927  -1.51035
H     2.82749   0.06526  -1.33001
C     2.39680   2.65581  -1.93892
H     2.00369   3.66514  -1.84216
H     1.62026   2.00819  -2.33925
H     3.21323   2.68255  -2.65996
C     3.96509   3.01590  -0.00638
H     4.36856   2.59093   0.90937
H     3.59537   4.01429   0.19790
H     4.78332   3.10718  -0.72086
C     0.42635   3.33259   0.87899
C    -0.20684   3.17312   2.26228
H    -0.64524   2.18322   2.36307
H    -0.99078   3.91710   2.39755
H     0.52634   3.30124   3.05366
C    -0.68065   3.33200  -0.18058
H    -0.26642   3.43182  -1.18160
H    -1.37480   4.15466  -0.01102
H    -1.24001   2.39536  -0.13188
C     1.15589   4.67375   0.82077
H     1.56762   4.87035  -0.16507
H     1.94973   4.74159   1.55920
H     0.43861   5.46561   1.04050
C    -0.74763  -2.87520  -1.09164
H    -0.69407  -2.38703  -2.06339
H    -1.42942  -3.73243  -1.15593
H     0.24592  -3.23332  -0.83149
C    -2.55887  -1.47448  -0.42839
H    -2.49781  -0.82843  -1.30652
H    -2.98968  -0.91385   0.40074
H    -3.22419  -2.30913  -0.68202
O     0.32530  -0.15718  -1.60996
