39

Ru    0.00000   0.00000   0.00000
Cl    1.11669   0.45790  -1.97985
O    -3.43626  -1.28684  -1.63697
O     0.62531   3.78740   1.18826
N    -0.07249  -1.94705  -0.66686
N    -1.76418   0.03818  -0.72841
N    -0.34116   1.83884   0.38442
N     1.77831   0.42529   0.94687
C     0.84365  -2.90790  -0.70255
H     1.82325  -2.65349  -0.31926
C     0.59545  -4.17206  -1.20878
H     1.37979  -4.91209  -1.21037
C    -0.66660  -4.46355  -1.70626
H    -0.89537  -5.44133  -2.10095
C    -1.61889  -3.46205  -1.69278
H    -2.61762  -3.60382  -2.07623
C    -1.28971  -2.21517  -1.17286
C    -2.30982  -1.11414  -1.21078
C    -2.37867   1.25383  -0.63218
C    -3.67040   1.56903  -1.07368
H    -4.27344   0.80114  -1.53055
C    -4.14377   2.85141  -0.91583
H    -5.13865   3.09534  -1.25639
C    -3.35705   3.84267  -0.32335
H    -3.75336   4.84080  -0.21397
C    -2.08536   3.56699   0.12417
H    -1.47493   4.32830   0.58227
C    -1.57236   2.27104  -0.01810
C     0.64447   2.59545   0.94487
C     1.82905   1.73085   1.26693
C     2.92278   2.29385   1.91520
H     2.89358   3.34999   2.13495
C     3.99462   1.49128   2.25731
H     4.85764   1.90191   2.75809
C     3.92430   0.14030   1.94885
H     4.72613  -0.53286   2.20725
C     2.80301  -0.34354   1.29732
H     2.72018  -1.39521   1.05569
O    -0.49410  -0.59285   1.45839
