46

Pt    0.00000   0.00000   0.00000
N    -1.57398  -1.10348  -0.47526
N     1.58448   1.05681   0.38630
O     4.71448  -0.40385  -3.33010
O     4.30669  -2.23813  -4.94179
S     4.19225  -1.71891  -3.60403
C     2.60140   0.55363   1.09007
H     2.51805  -0.48911   1.37922
C     3.70419   1.30883   1.44121
H     4.50144   0.86325   2.01483
C     3.76485   2.63718   1.04661
H     4.61387   3.25165   1.30243
C     2.70573   3.15573   0.31694
H     2.70620   4.18364  -0.00845
C     1.63643   2.33584   0.00912
H     0.78460   2.70830  -0.55099
C    -2.75516  -1.02318   0.13392
H    -2.82636  -0.31134   0.94750
C    -3.84012  -1.79781  -0.23507
H    -4.77685  -1.69605   0.28819
C    -3.69331  -2.69533  -1.28231
H    -4.51853  -3.31506  -1.59867
C    -2.46818  -2.78146  -1.91705
H    -2.32842  -3.46840  -2.73556
C    -1.41120  -1.97487  -1.50176
C    -0.07701  -1.96488  -2.09601
C     0.32694  -2.79507  -3.14191
H    -0.35516  -3.50998  -3.57669
C     1.61879  -2.71089  -3.62609
H     1.96599  -3.33418  -4.43466
C     2.48122  -1.78385  -3.07127
C     2.09265  -0.94934  -2.04269
H     2.81917  -0.23642  -1.67921
C     0.80420  -1.01973  -1.52261
C     4.96102  -2.88080  -2.46460
C     5.18012  -4.18394  -2.86446
H     4.93739  -4.46452  -3.87733
C     5.72440  -5.08535  -1.96429
H     5.90835  -6.10570  -2.26512
C     6.03396  -4.67342  -0.67766
H     6.45801  -5.37666   0.02370
C     5.80874  -3.36231  -0.28683
H     6.05814  -3.04656   0.71512
C     5.26694  -2.45865  -1.18520
H     5.09493  -1.42758  -0.91867
O    -0.69167   0.78737   1.27442
