45

Pt    0.00000   0.00000   0.00000
N     0.00591   1.97910   0.05535
N    -0.03618  -1.93545  -0.03709
C     0.98765   2.73892  -0.42501
H     1.82410   2.21538  -0.87158
C     0.96033   4.12029  -0.36599
H     1.78031   4.69289  -0.76792
C    -0.13532   4.74140   0.21636
H    -0.19047   5.81787   0.27959
C    -1.15663   3.95653   0.71534
H    -2.01998   4.41192   1.17269
C    -1.07316   2.56778   0.62879
C    -2.07549   1.63249   1.11711
C    -3.26230   1.99174   1.74759
H    -3.50911   3.03125   1.90882
C    -4.14384   1.02007   2.17946
H    -5.05267   1.33525   2.66540
C    -3.86847  -0.33112   1.99401
C    -2.67608  -0.67488   1.35705
H    -2.45409  -1.72340   1.20576
C    -1.76480   0.27129   0.91070
C    -4.80809  -1.43468   2.45404
C    -4.06841  -2.33859   3.45072
H    -4.73088  -3.12544   3.80565
H    -3.73273  -1.75698   4.30669
H    -3.19947  -2.80477   2.99436
C    -5.24763  -2.25625   1.23372
H    -4.39729  -2.71963   0.74089
H    -5.75143  -1.61611   0.51260
H    -5.93578  -3.04195   1.53888
C    -6.06457  -0.89557   3.14333
H    -6.64240  -0.26803   2.46893
H    -5.80821  -0.32379   4.03215
H    -6.69523  -1.72785   3.44986
C     0.43184  -2.64535   0.99340
H     0.68041  -2.08544   1.88950
C     0.60302  -4.01522   0.93379
H     0.99267  -4.54612   1.78794
C     0.27414  -4.68631  -0.23493
H     0.40110  -5.75487  -0.31419
C    -0.21738  -3.94677  -1.30077
H    -0.48275  -4.42316  -2.23123
C    -0.35683  -2.57905  -1.16291
H    -0.72674  -1.96588  -1.97861
O     1.46513  -0.17029  -0.73952
