36

Co    0.00000   0.00000   0.00000
N    -1.55559   0.95347  -0.68081
C    -2.78913   0.64837  -0.27713
C    -3.90346   1.33409  -0.76142
N    -3.76718   2.31762  -1.63903
C    -2.54641   2.63090  -2.04754
C    -1.43227   1.94213  -1.56655
C    -5.28000   0.97739  -0.31688
C    -2.39880   3.74380  -3.02705
O     1.70952   2.30949  -0.42634
N     0.91140   1.60723   0.40478
C     0.77494   1.98930   1.62559
C    -0.10659   1.19770   2.41041
N    -0.62095   0.18434   1.78258
O    -1.47458  -0.60283   2.30545
O     1.35314   0.67732  -2.35836
N     0.68152  -0.22134  -1.75595
C     0.38378  -1.36726  -2.28879
C    -0.43049  -2.20001  -1.47446
N    -0.77787  -1.68874  -0.34621
O    -1.57123  -2.39366   0.48711
H    -5.31526   0.86215   0.76354
H    -5.57782   0.03057  -0.76515
H    -5.97655   1.74833  -0.63228
H    -1.79162   3.42833  -3.87239
H    -1.90101   4.58949  -2.55540
H    -3.37914   4.05688  -3.37301
H    -2.91453  -0.13929   0.45207
H    -0.44430   2.19783  -1.92214
H     1.74537   1.75552  -1.29321
H     1.29867   2.85353   2.01262
H    -0.33744   1.40933   3.44519
H    -1.61277  -1.83600   1.35149
H     0.73419  -1.65210  -3.27113
H    -0.74424  -3.19283  -1.76923
O     1.31821  -0.80698   0.57759
