49

Os    0.00000   0.00000   0.00000
Cl   -0.50663   2.26284   0.14068
N    -0.92743  -0.43314   1.81031
N     1.84883   0.58242   0.64208
N     0.24045  -1.90660   0.16492
N     0.87211   0.37515  -1.65532
N     2.01191   1.00134  -1.63127
N    -0.38540  -2.55836   1.08828
C    -1.53665   0.37038   2.67465
C    -2.28918  -0.10844   3.72990
C    -2.42167  -1.48570   3.89980
C    -1.79456  -2.33319   3.01554
C    -1.05006  -1.77614   1.96762
C     2.35822   0.67735   1.86867
C     3.56087   1.29569   2.12870
C     4.27997   1.85625   1.06872
C     3.77332   1.76821  -0.20323
C     2.53974   1.12548  -0.40062
C     0.27933   0.30728  -2.91837
C     0.38848   1.40435  -3.78466
C    -0.28135   1.40473  -5.00596
C    -1.04775   0.34622  -5.40626
C    -1.12148  -0.81644  -4.53066
C    -0.45769  -0.80656  -3.28933
C     0.27542  -3.86548  -1.21667
C     0.87948  -4.68133  -2.21336
C     2.17068  -4.27910  -2.71057
C     2.77872  -3.16019  -2.21158
C     2.17674  -2.36931  -1.23782
C     0.90780  -2.72678  -0.75897
C    -1.84533  -1.60293  -5.33253
C     0.37847  -5.81196  -2.75555
H    -1.42033   1.43154   2.49632
H    -2.77273   0.58300   4.40018
H    -3.01313  -1.88074   4.71151
H    -1.86423  -3.40554   3.08530
H     1.77026   0.23869   2.66459
H     3.93178   1.34869   3.13891
H     5.21961   2.35331   1.25342
H     4.27408   2.18394  -1.06123
H     0.96315   2.25893  -3.46680
H    -0.21769   2.27223  -5.64619
H    -1.58742   0.35091  -6.34200
H    -0.51265  -1.68810  -2.67425
H    -0.70302  -4.12462  -0.84614
H     2.63719  -4.88317  -3.47121
H     3.75483  -2.88606  -2.58393
H     2.69600  -1.51651  -0.83005
O    -1.49161  -0.26934  -0.65196
