30

Nb    0.00000   0.00000   0.00000
Cl    0.49696  -1.64764   1.56473
Cl   -1.55566   1.40782  -1.02026
O    -1.59769   0.54028   1.92327
O    -2.17093  -1.49531  -0.05700
N     0.89936  -0.56667  -1.42058
N     1.56919  -0.93089  -2.47837
C    -2.55165  -0.48965   2.08438
H    -3.35250  -0.14672   2.75695
H    -2.07283  -1.38291   2.51463
C    -3.15324  -0.84465   0.72885
H    -4.00927  -1.52002   0.87543
H    -3.49148   0.07283   0.22434
C    -1.03323   0.94909   3.15181
H    -1.81550   1.31108   3.82955
H    -0.33819   1.75932   2.92869
H    -0.49097   0.12309   3.62850
C    -2.63776  -1.83767  -1.34753
H    -3.50257  -2.50761  -1.27066
H    -1.81116  -2.34485  -1.84596
H    -2.91302  -0.93973  -1.91369
C     2.78761  -1.68408  -2.21759
H     3.59444  -1.02607  -1.87404
H     3.09475  -2.19517  -3.12801
H     2.57210  -2.41542  -1.43868
C     1.68353   0.08850  -3.51233
H     0.71512   0.58056  -3.60647
H     1.95087  -0.38444  -4.45522
H     2.43853   0.83806  -3.24753
O     0.98699   1.18630   0.58398
