37

Nb    0.00000   0.00000   0.00000
Cl    1.30940  -1.41877   1.32225
Cl   -0.17155   1.41116  -1.82859
O     1.58982  -1.05354  -1.70550
O     2.37385   1.17754  -0.04026
N    -0.84745   0.87976   1.29556
N    -1.43264   1.42474   2.31567
C     1.01766  -1.57712  -2.88641
H     0.62764  -0.77385  -3.52386
H     0.19832  -2.22862  -2.58017
H     1.76103  -2.15722  -3.44586
C     2.69458  -0.21180  -1.96671
H     2.37529   0.65499  -2.56607
H     3.46207  -0.77343  -2.52040
C     3.28461   0.27874  -0.64864
H     3.46688  -0.57909   0.01573
H     4.23372   0.79893  -0.84541
C     2.83127   1.66271   1.20740
H     2.93746   0.84364   1.92880
H     2.07401   2.36512   1.55715
H     3.79261   2.17536   1.08360
C    -1.40003   0.67770   3.56281
H    -0.83228  -0.23607   3.37419
H    -2.41008   0.41352   3.88124
H    -0.90515   1.25430   4.34639
C    -2.09725   2.64563   2.21644
C    -2.74202   3.21972   3.31377
H    -2.74939   2.72644   4.27177
C    -3.38531   4.43627   3.17758
H    -3.88157   4.86952   4.03366
C    -3.39979   5.09853   1.96217
H    -3.90526   6.04703   1.86537
C    -2.76047   4.53094   0.87050
H    -2.76680   5.03725  -0.08301
C    -2.11310   3.31863   0.98973
H    -1.61570   2.87369   0.13757
O    -1.12625  -1.12758  -0.42735
