36

Re    0.00000   0.00000   0.00000
O    -1.98832   2.11381  -1.06357
O     1.86398   0.10960  -2.45838
O     1.54185   2.14214   1.60874
N    -1.08875  -1.75937  -0.75813
N     1.03286  -1.74387   0.86709
N     0.90504  -3.88641   1.46650
H     0.54915  -4.82129   1.56932
N    -1.60338  -3.90932  -0.47823
H    -1.59558  -4.84490  -0.10960
C    -0.76854  -2.88656  -0.14025
C    -2.52673  -3.39497  -1.35735
C    -3.60660  -3.96270  -2.01405
H    -3.86691  -5.00083  -1.87672
C    -4.33378  -3.13631  -2.84641
H    -5.18543  -3.53787  -3.37377
C    -3.99853  -1.79050  -3.02446
H    -4.60055  -1.18739  -3.68621
C    -2.92632  -1.21785  -2.37687
H    -2.66216  -0.18084  -2.50849
C    -2.18307  -2.03447  -1.52900
C     0.36081  -2.87726   0.72988
C     1.98509  -3.35566   2.13115
C     2.89491  -3.90473   3.02020
H     2.83261  -4.93851   3.32310
C     3.87857  -3.06538   3.50225
H     4.60467  -3.45200   4.20080
C     3.95956  -1.72510   3.11188
H     4.74817  -1.11139   3.51874
C     3.06018  -1.17087   2.22821
H     3.11580  -0.13816   1.92353
C     2.05684  -2.00050   1.73498
C    -1.21436   1.34993  -0.70226
C     1.17293   0.07573  -1.54217
C     0.99194   1.36560   0.97011
O    -0.99258  -0.19333   1.30381
