28

Re    0.00000   0.00000   0.00000
Se   -0.97222   2.27002   0.81601
Se    1.42602   0.22156   2.16351
O     2.05196   1.11935  -2.01265
O     1.09681  -2.83947  -0.55037
O    -2.07478  -0.18726  -2.28638
C     1.31316   0.76600  -1.20667
C     0.70397  -1.78022  -0.38333
C    -1.27558  -0.12005  -1.47340
C    -1.59686   2.04974   2.67866
C    -0.54340   1.83364   3.75372
C     0.20675   0.51234   3.69233
C     2.34379   1.97649   2.15311
C     1.93326   2.95813   1.06242
C     0.52284   3.53158   1.12716
H    -2.15566   2.96686   2.88755
H    -2.29630   1.20992   2.63813
H     0.16093   2.67102   3.77015
H    -1.06908   1.84987   4.71391
H    -0.48637  -0.33289   3.65822
H     0.84774   0.41004   4.57308
H     2.22131   2.39603   3.15378
H     3.39816   1.72550   2.01364
H     2.62871   3.80330   1.10847
H     2.07715   2.48337   0.08845
H     0.41445   4.27286   0.33158
H     0.32014   4.02191   2.08157
O    -1.14835  -0.75475   0.91332
