35

Au    0.00000   0.00000   0.00000
C     0.18399   1.32392   1.57012
N     0.54725   2.62200   1.49702
C     0.90093   3.33751   0.26383
C    -0.30456   3.33379  -0.68011
C     2.11141   2.65673  -0.38085
C     1.26957   4.78977   0.57801
C     0.53847   3.17441   2.74836
C     0.16499   2.20303   3.61089
N    -0.04964   1.07001   2.87532
C    -0.47115  -0.22432   3.42735
C    -1.82503  -0.60825   2.82452
C     0.59523  -1.27586   3.10979
C    -0.62388  -0.13012   4.94758
H    -1.16698   3.78781  -0.19574
H    -0.56618   2.31854  -0.96982
H    -0.07247   3.89715  -1.57919
H     2.95044   2.63805   0.31209
H     2.40841   3.19913  -1.27374
H     1.87482   1.63369  -0.66380
H     2.12807   4.84662   1.24414
H     0.43128   5.32684   1.01666
H     1.53535   5.28843  -0.35026
H     0.78670   4.19168   2.95629
H     0.04773   2.26190   4.67038
H    -2.56552   0.16143   3.03423
H    -2.16738  -1.54714   3.24990
H    -1.74845  -0.72827   1.74621
H     1.56045  -0.97038   3.50938
H     0.69527  -1.41442   2.03561
H     0.31960  -2.22808   3.55359
H     0.31884   0.12644   5.42612
H    -0.93616  -1.10007   5.32567
H    -1.38465   0.59603   5.22636
O    -0.15286  -1.05875  -1.25626
