35

Au    0.00000   0.00000   0.00000
C    -1.75668  -0.67247  -0.88175
N    -1.95084  -0.95359  -2.18759
C    -0.93251  -0.83418  -3.23852
C     0.23891  -1.76289  -2.90810
C    -0.47376   0.62391  -3.32541
C    -1.51382  -1.24533  -4.59323
C    -3.24048  -1.36497  -2.38423
C    -3.85554  -1.33894  -1.18053
N    -2.93327  -0.91171  -0.26513
C    -3.18440  -0.74180   1.17139
C    -2.25164  -1.66994   1.95406
C    -2.95098   0.72306   1.55029
C    -4.63209  -1.10796   1.50647
H    -0.10461  -2.79185  -2.82125
H     0.70770  -1.47518  -1.96990
H     0.98614  -1.70989  -3.69459
H    -1.31942   1.27650  -3.53368
H     0.25690   0.73525  -4.12134
H    -0.01484   0.94086  -2.39172
H    -2.34093  -0.60062  -4.88248
H    -1.84514  -2.28155  -4.58458
H    -0.73772  -1.15020  -5.34802
H    -3.64337  -1.64559  -3.33233
H    -4.86469  -1.59364  -0.94238
H    -2.40879  -2.70500   1.65683
H    -2.44726  -1.57933   3.01857
H    -1.21037  -1.41321   1.77345
H    -3.59763   1.37454   0.96570
H    -1.91766   1.00944   1.36883
H    -3.16760   0.87151   2.60419
H    -5.33552  -0.46446   0.98248
H    -4.78723  -0.97160   2.57338
H    -4.84345  -2.14835   1.26915
O     1.39653   0.53606   0.69631
