41

C    -2.75838   0.65911  -0.54146
C    -3.99101   0.82934  -1.17750
H    -4.66750   1.60024  -0.84193
C    -4.32023   0.00045  -2.23373
H    -5.26424   0.11349  -2.74528
C    -3.41644  -0.97754  -2.62476
H    -3.63502  -1.64410  -3.44312
C    -2.21241  -1.07934  -1.94250
H    -1.47504  -1.82436  -2.20774
C    -2.35914   1.50192   0.56209
H    -3.02455   2.32676   0.81870
C    -0.77593   2.10410   2.17504
C    -0.94322   3.49390   2.09589
H    -1.50165   3.90919   1.27024
C    -0.32952   4.33398   2.99212
H    -0.44759   5.40330   2.89526
C     0.47728   3.82736   4.01863
C     0.65375   2.42467   4.12405
C     0.02035   1.55079   3.20635
C     0.18085   0.14840   3.37436
H    -0.34736  -0.52284   2.71427
C     0.97806  -0.35486   4.35034
H     1.10637  -1.42261   4.44768
C     1.65784   0.49689   5.26481
C     1.47638   1.89695   5.14901
C     2.48502  -0.00102   6.27543
H     2.62436  -1.06864   6.36144
C     3.12057   0.85675   7.15400
H     3.75941   0.45558   7.92706
C     2.94496   2.22512   7.05214
H     3.44582   2.88901   7.74196
C     2.12661   2.76782   6.05871
C     1.92781   4.17183   5.92464
H     2.42701   4.82699   6.62421
C     1.13691   4.67836   4.94727
H     0.99318   5.74505   4.85168
N    -1.89533  -0.28480  -0.93692
N    -1.27898   1.26547   1.20862
Cl    0.87862   1.64857  -1.17767
Zn    0.00000   0.00000   0.00000
O     0.58617  -1.49113   0.39424
