61

Au    0.00000   0.00000   0.00000
P     1.71377  -1.44750  -0.25057
P     5.96944   2.97871  -3.25500
O     6.98839   1.96507  -3.55182
C     2.90711  -0.89350  -1.52966
C     3.42218   0.49556  -1.16034
C     4.83247   2.46111  -1.89515
C     4.31806   1.07340  -2.25017
C     2.78219  -1.64298   1.20238
C     2.62682  -0.77552   2.27663
C     3.45062  -0.88961   3.38258
C     4.42682  -1.87120   3.41680
C     4.58139  -2.74057   2.34714
C     3.76285  -2.63044   1.23982
C     1.31716  -3.16359  -0.67571
C     1.43521  -3.68200  -1.96043
C     1.03371  -4.98202  -2.21502
C     0.50440  -5.76196  -1.20065
C     0.36744  -5.24162   0.07731
C     0.76471  -3.94530   0.33851
C     4.87437   3.32573  -4.66772
C     5.04591   2.55267  -5.80693
C     4.23639   2.75520  -6.91046
C     3.25661   3.73378  -6.87490
C     3.08917   4.51175  -5.73952
C     3.89676   4.31122  -4.63536
C     6.66715   4.58552  -2.75696
C     7.96166   4.84321  -3.18767
C     8.57335   6.04379  -2.87661
C     7.88946   6.99208  -2.13361
C     6.59876   6.73596  -1.69941
C     5.98457   5.53580  -2.00933
H     3.73019  -1.61143  -1.61339
H     2.37594  -0.84763  -2.48662
H     2.56787   1.16385  -0.99982
H     3.97833   0.44141  -0.21927
H     5.17644   0.41686  -2.41343
H     3.76340   1.13124  -3.19255
H     5.41585   2.43457  -0.97017
H     4.00622   3.16103  -1.77361
H     1.85673  -0.01446   2.24032
H     3.32821  -0.21507   4.21672
H     5.06832  -1.96254   4.28041
H     5.34224  -3.50640   2.37812
H     3.87319  -3.31093   0.40585
H     1.84155  -3.07967  -2.76013
H     1.13268  -5.38557  -3.21201
H     0.19263  -6.77483  -1.40682
H    -0.05279  -5.84573   0.86762
H     0.65770  -3.52647   1.33182
H     5.82021   1.79883  -5.80726
H     4.36865   2.15225  -7.79693
H     2.62235   3.89455  -7.73419
H     2.32670   5.27645  -5.71667
H     3.77263   4.92236  -3.75360
H     8.47685   4.08218  -3.75606
H     9.58135   6.24047  -3.21082
H     8.36301   7.93102  -1.88752
H     6.06914   7.47434  -1.11515
H     4.98233   5.34061  -1.65749
O    -1.17942   1.14054   0.17505
