60

Au    0.00000   0.00000   0.00000
P    -1.01452   0.22646   2.00146
O    -0.32235   1.30221   2.98348
O    -2.51376   0.80698   1.81444
C    -1.01396  -2.29298   3.17905
C    -0.16675  -2.68168   2.03609
C    -1.43826  -0.98687   3.27629
C    -0.68344  -3.45853   1.02784
H    -1.69927  -3.82105   1.10539
C    -2.26046  -0.56170   4.33754
H    -2.56798   0.47261   4.37357
C     0.07706  -3.76018  -0.11024
H    -0.36298  -4.35874  -0.89360
C    -2.65635  -1.45212   5.29077
H    -3.28868  -1.13660   6.10823
C     1.35080  -3.28218  -0.23536
H     1.93165  -3.48472  -1.12201
C    -2.65652  -3.74282   6.19868
H    -3.29919  -3.41122   7.00171
C     3.23115  -1.97314   0.66752
H     3.78938  -2.18252  -0.23237
C    -2.24631  -5.04457   6.12723
H    -2.56409  -5.75774   6.87351
C     3.77014  -1.20807   1.66309
H     4.76646  -0.80329   1.56307
C    -1.40289  -5.46394   5.08716
H    -1.07831  -6.49323   5.05040
C     3.03433  -0.94611   2.82948
H     3.47972  -0.35555   3.61744
C    -0.99235  -4.57948   4.12893
H    -0.33843  -4.89845   3.33090
C     1.76147  -1.42738   2.97096
H     1.20467  -1.22972   3.87639
C    -1.41260  -3.23287   4.16491
C     1.16531  -2.19491   1.94722
C    -2.25095  -2.80360   5.22827
C     1.92523  -2.49307   0.78320
C    -0.04490   3.65756   2.73063
H    -0.99532   3.79490   3.22440
C    -2.15912   2.40035   0.03169
H    -1.18801   2.65619   0.43434
C     0.43238   2.37155   2.52212
C    -2.94405   1.45370   0.67249
C     1.64622   2.16195   1.88622
H     2.00795   1.15423   1.74489
C    -4.20737   1.14221   0.18951
H    -4.79908   0.40207   0.70579
C     2.38215   3.25123   1.45156
H     3.32295   3.08683   0.94972
C    -4.67897   1.78011  -0.94317
H    -5.65986   1.53634  -1.32192
C     1.91137   4.53769   1.65304
H     2.48608   5.38337   1.30766
C    -3.89451   2.71755  -1.59540
H    -4.26246   3.20452  -2.48522
C     0.70222   4.73915   2.29767
H     0.33106   5.74006   2.45783
C    -2.63896   3.02913  -1.10493
H    -2.02236   3.75982  -1.60474
O     0.76517  -0.11331  -1.45745
