61

Pd    0.00000   0.00000   0.00000
Br   -1.67223   1.52589   0.94301
S     1.55556   1.82152  -0.02715
N     0.47696   1.50568  -2.38069
H     0.24374   0.59444  -1.92107
N     1.75378   3.42628  -2.11419
H     1.47710   3.64562  -3.07293
C     1.26537   2.30918  -1.60725
C    -0.03119   1.76676  -3.63455
C    -0.99118   0.73196  -4.07612
C    -1.78465   0.02977  -3.16585
H    -1.78663   0.27011  -2.10053
C    -2.65051  -0.94666  -3.62065
H    -3.26033  -1.48691  -2.91275
C    -2.73292  -1.23019  -4.97507
H    -3.40376  -2.00139  -5.32282
C    -1.96634  -0.51808  -5.88356
H    -2.04063  -0.73060  -6.93931
C    -1.10331   0.46497  -5.43855
H    -0.49474   1.02836  -6.12957
O     0.29703   2.74204  -4.28315
C     2.54733   4.36345  -1.35533
H     3.48460   3.87823  -1.05642
H     2.00719   4.62878  -0.43790
C     2.83451   5.60726  -2.18522
H     1.88922   6.07065  -2.47464
H     3.36242   5.31596  -3.09559
C     3.67631   6.60735  -1.40322
H     3.87096   7.48969  -2.00651
H     4.62953   6.16680  -1.12072
H     3.15923   6.91685  -0.49816
S    -1.55437  -1.82220   0.02566
C    -1.26463  -2.30916   1.60608
N    -0.47608  -1.50566   2.37943
H    -0.24276  -0.59450   1.91984
C     0.03202  -1.76661   3.63333
C     0.99205  -0.73180   4.07476
C     1.78548  -0.02975   3.16436
H     1.78777  -0.27062   2.09916
C     2.65139   0.94670   3.61897
H     3.26163   1.48648   2.91102
C     2.73400   1.23029   4.97335
H     3.40482   2.00160   5.32092
C     1.96735   0.51846   5.88196
H     2.04148   0.73134   6.93764
C     1.10417  -0.46455   5.43711
H     0.49549  -1.02768   6.12822
O    -0.29636  -2.74173   4.28210
N    -1.75338  -3.42598   2.11333
H    -1.47669  -3.64521   3.07209
C    -2.54706  -4.36318   1.35463
H    -3.48309  -3.87698   1.05344
H    -2.00587  -4.63079   0.43847
C    -2.83752  -5.60527   2.18595
H    -1.89343  -6.06972   2.47756
H    -3.36640  -5.31176   3.09505
C    -3.67968  -6.60524   1.40417
H    -3.87670  -7.48636   2.00848
H    -4.63174  -6.16360   1.11948
H    -3.16166  -6.91693   0.50039
O     1.12495  -1.02633  -0.63533
