35

Pt    0.00000   0.00000   0.00000
S    -0.29479   2.21737   0.28362
O    -1.44793   2.74470   0.99903
C     1.16074   2.97082   1.07460
H     0.98444   4.03740   1.15234
H     2.03644   2.74948   0.47627
H     1.25680   2.53506   2.06433
C    -0.25198   3.11024  -1.30154
H    -1.10273   2.77642  -1.88750
H     0.67519   2.87458  -1.81023
H    -0.33783   4.16978  -1.08970
N     0.31820  -1.95846  -0.27538
C    -0.60429  -2.80022   0.24863
C    -1.69916  -2.13172   0.93381
C    -1.61783  -0.72256   0.94284
C    -2.62678  -0.01517   1.57734
H    -2.59402   1.06382   1.60269
C    -3.68568  -0.67443   2.18504
H    -4.46177  -0.10354   2.67402
C    -3.75571  -2.05878   2.16951
H    -4.58311  -2.56590   2.64406
C    -2.76500  -2.79033   1.54550
H    -2.82300  -3.86878   1.53523
C    -0.44746  -4.17809   0.10327
H    -1.18162  -4.84583   0.52344
C     0.64346  -4.68233  -0.57384
H     0.76983  -5.74900  -0.68813
C     1.58566  -3.80719  -1.11058
C     1.36963  -2.44912  -0.92854
H     2.07321  -1.72721  -1.32478
C     2.77573  -4.30234  -1.86638
H     3.50947  -3.51121  -1.99091
H     2.47208  -4.64768  -2.85450
H     3.23805  -5.13969  -1.34792
O     1.35509   0.50450  -0.79481
