54

Cu    0.00000   0.00000   0.00000
Cl   -1.70981   0.03591  -1.41278
N    -1.21047  -0.71802   1.51128
N    -1.60577  -1.98454   1.47363
C    -1.58811  -0.21627   2.67193
C    -2.26378  -1.19052   3.40981
C    -2.25463  -2.30817   2.60568
N     1.34369  -0.54867  -1.46867
N     1.24956  -1.78555  -1.94442
C     2.47224  -0.03423  -1.91840
C     3.13088  -0.96917  -2.72114
C     2.31563  -2.07887  -2.70979
C    -1.39601  -2.80978   0.30079
C     0.11013  -2.61258  -1.62642
N    -0.05343  -2.69694  -0.19526
C     1.02995  -3.37482   0.50284
C     0.92166  -4.90099   0.55558
C     2.20959  -5.52877   1.10179
N     2.76110  -4.79002   2.24179
C     2.52345  -3.37571   2.52602
C     1.19925  -2.89314   1.93714
C     2.48898  -3.20164   4.04756
C     3.70260  -2.56232   1.96800
C     1.91387  -6.95373   1.58893
C     3.29635  -5.59600   0.01554
O     3.67039  -5.37009   2.89572
H    -1.35693   0.79707   2.93094
H    -2.69321  -1.08920   4.38434
H    -2.66370  -3.28605   2.76405
H     2.76793   0.95896  -1.64738
H     4.06355  -0.84837  -3.23109
H     2.42048  -3.03044  -3.19179
H    -2.07273  -2.44524  -0.48182
H    -1.67852  -3.83589   0.58215
H    -0.78194  -2.12720  -2.04289
H     0.27517  -3.58950  -2.10986
H     1.93167  -3.10031  -0.05042
H     0.08715  -5.18151   1.20196
H     0.73128  -5.31856  -0.43530
H     1.20001  -1.80245   1.96972
H     0.37647  -3.26224   2.55261
H     2.35959  -2.14973   4.28159
H     3.41699  -3.55663   4.48656
H     1.66517  -3.76604   4.48004
H     3.00381  -6.29933  -0.75996
H     4.22703  -5.93730   0.46266
H     3.46810  -4.62438  -0.44049
H     1.51850  -7.55214   0.77301
H     1.18654  -6.93518   2.39769
H     2.82489  -7.41378   1.96084
H     3.51637  -1.50532   2.14022
H     3.82965  -2.71349   0.89951
H     4.62096  -2.85931   2.46784
O     1.20766   0.39500   1.05263
