46

Cd    0.00000   0.00000   0.00000
Cl   -1.55033   1.01357   1.47967
N    -0.86678   0.96573  -2.05208
N     0.85594   2.17737  -0.45816
N     2.00887   0.53212   1.25712
C    -0.79017   2.22964  -2.18105
C     0.15004   2.93794  -1.28558
C     0.28174   4.32915  -1.27093
H    -0.27805   4.95330  -1.94729
C     1.15183   4.90092  -0.35852
H     1.27841   5.97310  -0.32799
C     1.84367   4.09361   0.52812
H     2.50415   4.53369   1.25643
C     1.65945   2.71028   0.45380
C     2.30610   1.76286   1.38748
C    -1.63578   3.04974  -3.11084
H    -2.35458   2.41630  -3.62496
H    -1.01533   3.55365  -3.85069
H    -2.17907   3.80341  -2.54342
C     3.19242   2.32223   2.46156
H     3.51043   1.53258   3.13799
H     2.64674   3.07135   3.03284
H     4.07362   2.79218   2.02698
C    -1.66428   0.11918  -2.80932
C    -1.54086   0.04231  -4.19765
H    -0.82540   0.67431  -4.70504
C    -2.28515  -0.88282  -4.90594
H    -2.17094  -0.94851  -5.97800
C    -3.17069  -1.71894  -4.24778
H    -3.75170  -2.43725  -4.80594
C    -3.29870  -1.64095  -2.86899
H    -3.98173  -2.29729  -2.35182
C    -2.54415  -0.73928  -2.14582
H    -2.63771  -0.67409  -1.06728
C     2.52515  -0.51183   2.01193
C     1.63473  -1.37194   2.65901
H     0.57103  -1.16407   2.61858
C     2.11769  -2.45901   3.35934
H     1.42561  -3.11644   3.86292
C     3.47936  -2.71868   3.40361
H     3.84950  -3.57936   3.93964
C     4.36262  -1.87916   2.74666
H     5.42294  -2.08424   2.76590
C     3.89565  -0.77255   2.06197
H     4.57989  -0.13335   1.52160
O     0.03385  -1.63127  -0.24557
