42

Re    0.00000   0.00000   0.00000
S     2.26155  -3.93118  -0.00077
S    -2.26648   0.58319   2.90945
O    -0.44689   2.84931   1.10956
O     0.07419   1.02916  -2.90835
O    -2.95228  -0.90883  -0.11215
N     0.74786  -1.93654  -0.51633
N     0.44535  -0.97715   1.98808
N    -0.33377   1.61875   4.24410
O     4.54038  -3.65669   7.16981
C    -0.35167   1.78995   0.68728
C    -0.01380   0.66924  -1.82538
C    -1.85990  -0.55232  -0.07369
C     0.94509  -2.57269  -1.69356
H     0.48849  -2.18801  -2.58902
C     1.73554  -3.67315  -1.61617
H     2.04255  -4.33352  -2.40106
C     1.37591  -2.52366   0.47428
C     1.29311  -2.01213   1.82193
C     2.05142  -2.54662   2.85209
H     2.70890  -3.37850   2.64763
C     1.99629  -1.97735   4.12713
C     1.10522  -0.91260   4.28924
H     0.98622  -0.41266   5.23529
C     0.34088  -0.46333   3.21868
C    -0.60491   0.61310   3.48467
C    -1.38180   2.45162   4.38218
H    -1.26392   3.34341   4.96972
C    -2.51742   2.06177   3.74111
H    -3.47180   2.54603   3.71309
C     2.82853  -2.50379   5.17953
H     3.44421  -3.35196   4.91117
C     2.90649  -2.02816   6.43657
H     2.32372  -1.17790   6.75796
C     3.75394  -2.58609   7.44192
C     3.93814  -2.20613   8.75521
H     3.45326  -1.39297   9.25542
C     4.88469  -3.09562   9.29775
H     5.27047  -3.10147  10.29619
C     5.21279  -3.95228   8.28710
H     5.88979  -4.78298   8.24763
O     1.60865   0.32717   0.16645
