57

Re    0.00000   0.00000   0.00000
S     3.81201   0.18292  -2.44910
S    -2.33741  -2.79295  -0.84568
O     0.52906   1.67282   2.53834
O    -3.05676   0.37713   0.24804
O     0.23419  -2.73180   1.42737
N    -0.02820  -0.85955  -2.09517
N     2.05237  -0.00088  -0.60417
N    -3.47966  -1.33897  -2.62641
N     0.14260  -0.64138 -10.49991
C     0.29690   1.01221   1.63271
C    -1.92984   0.18292   0.20228
C     0.13350  -1.70990   0.90969
C     3.20381   0.35635   0.00925
H     3.21483   0.50280   1.07546
C     4.26591   0.50256  -0.82242
H     5.27111   0.78232  -0.58235
C     2.20161  -0.12891  -1.90072
C     1.10121  -0.52363  -2.74825
C     1.21483  -0.53056  -4.13096
H     2.14560  -0.21891  -4.57923
C     0.11159  -0.86634  -4.91423
C    -1.04609  -1.23388  -4.22781
H    -1.93650  -1.53690  -4.75320
C    -1.07494  -1.23393  -2.83716
C    -2.30964  -1.66739  -2.19659
C    -4.46561  -1.90055  -1.90273
H    -5.48647  -1.67441  -2.15003
C    -4.05008  -2.72266  -0.90079
H    -4.63969  -3.28487  -0.20621
C     0.16290  -0.83358  -6.37375
C     1.36156  -1.12272  -7.04642
H     2.23136  -1.40687  -6.47308
C     1.45354  -1.09534  -8.42049
H     2.38637  -1.33572  -8.90754
C     0.31806  -0.75924  -9.14878
C    -1.17413  -0.31694 -10.74519
C    -1.82833  -0.12101 -11.95314
H    -1.31613  -0.22363 -12.89790
C    -3.16993   0.20775 -11.91444
H    -3.70146   0.36399 -12.84144
C    -3.85363   0.33923 -10.70774
H    -4.90199   0.59646 -10.72134
C    -3.21066   0.14338  -9.50206
H    -3.74018   0.24379  -8.56695
C    -1.86232  -0.18793  -9.51614
C    -0.90299  -0.47162  -8.48620
C    -0.97690  -0.51079  -7.10576
H    -1.89967  -0.26092  -6.60579
C     1.14294  -0.89314 -11.50283
H     2.11807  -0.60731 -11.09907
H     0.93444  -0.25519 -12.36578
C     1.16028  -2.36077 -11.92786
H     0.19336  -2.64610 -12.33558
H     1.37502  -2.99850 -11.07345
H     1.92180  -2.52219 -12.68600
O    -0.02714   1.37552  -0.91089
