42

Re    0.00000   0.00000   0.00000
S     3.38672  -2.34975   1.88708
S     1.02720   2.55209  -2.53697
O    -1.81466   0.62265  -2.42240
O    -2.42453  -0.33839   1.87822
O     0.61625   2.90401   0.86066
N     1.38383  -0.83883   1.39752
N     1.90551  -0.27689  -1.19022
N     0.89272   0.78767  -4.39673
N     6.09305  -2.89076  -2.92656
C    -1.14923   0.46073  -1.50583
C    -1.54381  -0.14890   1.17211
C     0.36907   1.83024   0.53196
C     1.30551  -1.15372   2.71089
H     0.49296  -0.76837   3.30222
C     2.29946  -1.96027   3.16023
H     2.45323  -2.35079   4.14517
C     2.42040  -1.39330   0.81666
C     2.70448  -1.17402  -0.58191
C     3.71992  -1.86376  -1.22899
H     4.27723  -2.59528  -0.66767
C     3.92798  -1.66581  -2.59548
C     3.09398  -0.72832  -3.21643
H     3.19560  -0.50997  -4.26596
C     2.12360  -0.05034  -2.49112
C     1.33718   0.95173  -3.19858
C     0.24326   1.87417  -4.85391
H    -0.19762   1.84312  -5.83322
C     0.21377   2.93208  -3.99811
H    -0.22678   3.89761  -4.13897
C     4.89926  -2.38651  -3.38031
C     4.78311  -2.72904  -4.72046
H     3.94642  -2.50843  -5.35257
C     5.92160  -3.45801  -5.07123
H     6.14177  -3.88205  -6.03008
C     6.71103  -3.52535  -3.94954
H     7.67420  -3.97814  -3.81539
C     6.69316  -2.70201  -1.63460
H     6.43365  -1.72240  -1.23279
H     7.77702  -2.76108  -1.73406
H     6.37417  -3.47470  -0.92901
O    -0.13442  -1.57922  -0.45880
