24

Mn    0.00000   0.00000   0.00000
N     1.49869   1.63208  -0.03918
H     1.08785   2.53988  -0.26370
H     1.94815   1.72519   0.87407
N     0.78999  -0.17900  -1.91742
O    -2.18204   1.67775  -0.98160
O    -0.86414   0.40567   2.77306
O    -1.80304  -2.30928  -0.04889
C     2.51570   1.28377  -1.04047
H     3.25344   0.62151  -0.56736
H     3.04316   2.16808  -1.42058
C     1.90699   0.50891  -2.17913
C     2.53083   0.46892  -3.41938
H     3.43093   1.04157  -3.58062
C     1.99448  -0.31559  -4.42355
H     2.46459  -0.36786  -5.39313
C     0.84130  -1.03429  -4.14786
H     0.38491  -1.66654  -4.89182
C     0.27500  -0.93282  -2.89138
H    -0.62698  -1.48295  -2.65438
C    -1.29674   1.04346  -0.60696
C    -0.50894   0.26786   1.69010
C    -1.08840  -1.40888  -0.05474
O     1.23652  -0.95817   0.52482
