68

Ru    0.00000   0.00000   0.00000
S     0.14225  -2.30379  -1.91491
N    -0.70345   1.61889  -1.20534
H    -1.71254   1.39352  -1.18426
H    -0.57956   2.57783  -0.87540
N     0.42293  -0.70012  -1.88432
O    -1.16975  -1.03034   3.06435
O     0.34182  -2.76117  -0.55825
O    -1.06094  -2.68069  -2.60645
C     2.08533   0.40613   0.88263
H     2.98099   0.76871   0.39529
C     1.10087   1.31926   1.33351
H     1.27226   2.38792   1.22354
C    -0.00494   0.88299   2.11355
H    -0.67230   1.60943   2.56170
C    -0.16975  -0.49752   2.35085
C     0.84745  -1.40502   1.93124
H     0.73108  -2.44756   2.18805
C     1.95440  -0.95531   1.22327
H     2.72862  -1.66219   0.95455
C    -2.39084  -0.30421   3.18936
H    -2.65274   0.12745   2.21448
H    -2.27164   0.49745   3.93205
C    -3.46420  -1.28489   3.62784
H    -4.41137  -0.76505   3.73817
H    -3.19292  -1.74521   4.57421
H    -3.57058  -2.06091   2.87578
C     0.50416  -0.23979  -4.25727
C     1.88329  -0.08137  -4.31044
H     2.40998   0.22472  -3.41873
C     2.57410  -0.34427  -5.47798
H     3.64742  -0.22534  -5.50708
C     1.89165  -0.76458  -6.60712
H     2.43137  -0.97514  -7.51873
C     0.51722  -0.91829  -6.56185
H    -0.01860  -1.24806  -7.43975
C    -0.17471  -0.65744  -5.39170
H    -1.24516  -0.79066  -5.35036
C     1.52010  -2.88595  -2.90169
C     2.80382  -2.61529  -2.46933
H     2.93285  -2.12618  -1.51656
C     3.87984  -2.96207  -3.26342
H     4.88762  -2.75214  -2.93326
C     3.68011  -3.57451  -4.49810
C     2.38233  -3.84493  -4.91168
H     2.21393  -4.32168  -5.86640
C     1.30225  -3.50158  -4.11641
H     0.28628  -3.69360  -4.42220
C     4.85588  -3.92102  -5.36069
H     4.53855  -4.43916  -6.26146
H     5.55282  -4.55791  -4.81814
H     5.38946  -3.01666  -5.65086
C    -0.22832   0.00560  -2.96221
H    -1.26967  -0.34349  -3.06547
C    -0.23351   1.50774  -2.59764
H     0.80117   1.86907  -2.63333
C    -1.09411   2.27196  -3.57057
C    -0.51455   3.10581  -4.51718
H     0.55918   3.22463  -4.53643
C    -1.30106   3.77340  -5.43981
H    -0.83886   4.41805  -6.17242
C    -2.67565   3.61371  -5.42395
H    -3.28999   4.13449  -6.14301
C    -3.26005   2.77751  -4.48721
H    -4.33106   2.64178  -4.47669
C    -2.47535   2.10676  -3.56671
H    -2.94158   1.43890  -2.85573
O    -1.54413  -0.51418  -0.27166
