25

Pt    0.00000   0.00000   0.00000
Br   -1.26423  -0.01141  -1.99848
N     1.40391   0.04149   1.65171
N     1.86080   0.02297  -1.11055
C     2.74453  -0.28354   1.14950
C     3.85071   0.12059   2.12732
C     5.22434  -0.21265   1.55074
C     2.94900   0.41672  -0.20741
C     4.33109   0.08331  -0.77457
C     5.42607   0.48631   0.20977
H     2.78267  -1.36851   0.98706
H     3.70860  -0.39867   3.07758
H     3.78788   1.19560   2.31761
H     5.99964   0.09842   2.25146
H     5.30989  -1.29298   1.41607
H     2.87271   1.50057  -0.05142
H     4.47337   0.60307  -1.72452
H     4.39234  -0.99161  -0.96569
H     6.40126   0.22457  -0.20184
H     5.40444   1.56847   0.35498
H     1.37725   0.99111   2.02657
H     1.11197  -0.58291   2.40276
H     2.00292  -0.92716  -1.45701
H     1.79824   0.63123  -1.92621
O    -1.28304  -0.03105   1.03699
