52

C     2.82067  -0.29931  -0.80357
C     0.94099  -1.53764   0.04211
C     1.82240  -3.56004   0.23634
H     1.83287  -4.60779   0.45382
C     2.81415  -2.73382  -0.16019
H     3.83346  -2.95122  -0.39295
C    -0.60437  -3.40608   0.58590
C    -1.29425  -3.13949   1.76993
C    -2.51575  -3.77003   1.97136
H    -3.07209  -3.57199   2.87353
C    -3.02936  -4.64200   1.03360
H    -3.97769  -5.12697   1.20948
C    -2.33838  -4.88151  -0.13734
H    -2.75725  -5.55001  -0.87210
C    -1.12016  -4.26636  -0.39111
C    -0.42319  -4.53258  -1.70575
H     0.46166  -3.89550  -1.79031
C     0.02945  -5.99379  -1.78595
H     0.68610  -6.24950  -0.95647
H     0.56685  -6.16616  -2.71558
H    -0.82711  -6.66210  -1.75695
C    -1.33845  -4.18861  -2.88338
H    -0.78639  -4.28093  -3.81578
H    -1.69928  -3.16812  -2.79222
H    -2.19419  -4.85583  -2.92690
C    -0.78953  -2.15386   2.79450
H     0.23835  -1.86404   2.55131
C    -1.66711  -0.90037   2.72778
H    -1.63043  -0.47379   1.71231
H    -1.31094  -0.15261   3.43213
H    -2.70451  -1.13696   2.95070
C    -0.77602  -2.74054   4.20635
H    -0.30390  -2.03621   4.88687
H    -0.21407  -3.67236   4.22778
H    -1.78261  -2.93579   4.56581
C     4.16455   0.05605  -0.69566
C     4.52736   1.26149  -1.29292
H     5.55591   1.58576  -1.23392
C     3.58607   2.04644  -1.93246
H     3.86157   2.97877  -2.39760
C     2.26712   1.62207  -1.93084
H     1.47857   2.20913  -2.38154
C     5.18181  -0.74100   0.05788
H     4.74435  -1.19040   0.94646
H     5.99666  -0.09036   0.36619
H     5.60478  -1.52762  -0.56779
Br    1.04289   1.02826   1.70092
N     1.89784   0.48154  -1.37485
N     2.26197  -1.48320  -0.28494
N     0.67407  -2.81470   0.34947
Ni    0.00000   0.00000   0.00000
O    -1.17074  -0.45425  -1.07029
