52

C     0.82821  -2.24304  -2.19808
H    -0.13277  -2.61166  -1.86220
C     1.50761  -2.85828  -3.23632
H     1.07873  -3.71179  -3.73593
C     2.74094  -2.35070  -3.60943
H     3.30286  -2.79974  -4.41471
C     3.24837  -1.25756  -2.92591
H     4.20817  -0.83881  -3.18617
C     2.49680  -0.70140  -1.90020
C     2.98195   0.51948  -1.15356
H     4.05010   0.66534  -1.32110
H     2.43823   1.38947  -1.54935
C     1.56739   0.24354   0.88918
C     3.74456   0.56539   1.20564
H     4.76587   0.73963   0.93674
C     3.16511   0.43769   2.42007
H     3.58080   0.49373   3.40445
C     0.91634  -0.03884   3.27231
C    -0.12497   0.84602   3.54909
C    -0.97847   0.55069   4.59869
H    -1.78715   1.23735   4.79540
C    -0.83602  -0.59619   5.37128
C     0.20168  -1.46138   5.05604
H     0.33660  -2.37667   5.60723
C     1.08125  -1.20680   4.01422
C    -0.36421   2.04415   2.68776
H     0.55776   2.57995   2.46532
H    -1.06858   2.72726   3.15372
H    -0.80231   1.71141   1.73542
C     2.14321  -2.20636   3.66561
H     2.17945  -2.36142   2.58849
H     1.92560  -3.15917   4.13962
H     3.12767  -1.87772   3.99865
C    -1.82849  -0.87006   6.48872
C    -3.23379  -0.97221   5.87956
H    -3.53847  -0.03405   5.42511
H    -3.95827  -1.22882   6.64944
H    -3.25228  -1.74274   5.11235
C    -1.77746   0.28173   7.50233
H    -2.03049   1.23100   7.03884
H    -0.77947   0.36510   7.92817
H    -2.48293   0.09918   8.30998
C    -1.53446  -2.17538   7.23230
H    -0.54903  -2.15237   7.69235
H    -1.59805  -3.02776   6.56062
H    -2.26994  -2.31482   8.02194
N     1.30618  -1.18633  -1.55450
N     2.75350   0.43988   0.27101
N     1.82856   0.23126   2.21085
Ni    0.00000   0.00000   0.00000
Br   -0.14083   1.94970  -1.09588
O    -0.66478  -1.28433   0.79440
