34

Rh    0.00000   0.00000   0.00000
S    -0.19047  -1.66166  -1.67067
N    -0.21172  -4.30803  -1.69675
C     0.60357   1.38594  -1.47843
H     0.96718   0.84609  -2.35386
C     1.61331   2.36027  -0.91542
H     1.59686   3.28306  -1.50619
H     2.60614   1.91882  -1.03321
C     1.38178   2.67729   0.57373
H     0.75244   3.56133   0.68464
H     2.34282   2.90385   1.03964
C     0.73919   1.52037   1.30837
H     1.38235   1.02918   2.03876
C    -0.63544   1.39017   1.47561
H    -0.99019   0.83364   2.34358
C    -1.66903   2.32966   0.89898
H    -1.67885   3.25580   1.48433
H    -2.64983   1.86199   1.01705
C    -1.44006   2.64164  -0.59165
H    -0.82723   3.53657  -0.70645
H    -2.40441   2.84850  -1.05996
C    -0.77562   1.48956  -1.31481
H    -1.40406   0.99557  -2.05536
C    -0.13180  -3.18076  -1.01599
H    -0.01568  -3.25980   0.06313
C    -0.15577  -5.58857  -1.03899
H    -0.05875  -5.45426   0.03569
H     0.69982  -6.16140  -1.40493
H    -1.06571  -6.15651  -1.24676
C    -0.36263  -4.34508  -3.12893
H    -1.30965  -4.81898  -3.39575
H     0.45317  -4.91640  -3.57595
H    -0.34739  -3.32845  -3.51524
O     0.13815  -1.14823   1.17685
