68

Pd    0.00000   0.00000   0.00000
N     1.24743   1.55903   0.34575
C     1.53730   2.27557  -0.74028
C     2.27588   3.44540  -0.63803
H     2.49861   4.03249  -1.51384
C     2.72155   3.84745   0.61287
H     3.28378   4.76326   0.71978
C     2.47070   3.05032   1.71562
H     2.85278   3.30812   2.69053
C     1.73180   1.88228   1.54437
C     1.49562   0.91554   2.62982
C     1.63787  -0.45305   2.36238
H     2.00217  -0.79620   1.38679
C     1.39822  -1.38413   3.35676
H     1.50972  -2.44176   3.17492
C     0.98999  -0.93785   4.60186
F     0.73847  -1.84623   5.56742
C     0.85249   0.40649   4.89295
H     0.52779   0.71375   5.87425
C     1.11822   1.33261   3.90188
H     0.98441   2.38467   4.10227
C     0.99850   1.65657  -2.00967
C     1.81943   2.03443  -3.24704
H     2.87285   1.80972  -3.09116
H     1.71768   3.09125  -3.48596
H     1.46973   1.45977  -4.10187
C    -0.45455   2.14149  -2.18139
H    -1.02067   1.97288  -1.25099
H    -0.93200   1.60018  -2.99782
H    -0.47845   3.20767  -2.40549
C     1.01696   0.12982  -1.78015
H     0.55566  -0.37616  -2.63679
H     2.05624  -0.21667  -1.70146
P    -1.14666  -1.87284  -0.38166
C    -1.02082  -3.16445   0.89993
C    -1.24327  -2.77417   2.21897
H    -1.45114  -1.73402   2.43495
C    -1.19835  -3.70890   3.23726
H    -1.36753  -3.39947   4.25777
C    -0.92797  -5.03722   2.94978
H    -0.88813  -5.76689   3.74531
C    -0.70962  -5.42950   1.63932
H    -0.50427  -6.46575   1.41115
C    -0.75714  -4.50079   0.61412
H    -0.59193  -4.81891  -0.40566
C    -0.74265  -2.79348  -1.90083
C     0.59067  -3.16371  -2.06625
H     1.30250  -2.90168  -1.29107
C     0.99204  -3.84678  -3.19674
H     2.02573  -4.13662  -3.31761
C     0.06446  -4.15485  -4.18122
H     0.37623  -4.68470  -5.06926
C    -1.25858  -3.77769  -4.02840
H    -1.97914  -4.01301  -4.79822
C    -1.66549  -3.09827  -2.89168
H    -2.69909  -2.80422  -2.77452
C    -2.93834  -1.61228  -0.50200
C    -3.87202  -2.59491  -0.19314
H    -3.54050  -3.56750   0.14396
C    -5.22196  -2.31627  -0.31021
H    -5.94982  -3.07607  -0.06453
C    -5.64257  -1.06534  -0.73288
H    -6.69851  -0.85241  -0.81425
C    -4.71331  -0.08445  -1.04092
H    -5.04388   0.89295  -1.36065
C    -3.36356  -0.35762  -0.92443
H    -2.61496   0.40175  -1.13762
O    -1.01855   0.39938   1.23513
