67

Au    0.00000   0.00000   0.00000
P    -0.60087   0.25217   2.15023
N    -3.53278  -2.32355   0.46140
C    -3.15328  -3.44400  -0.24825
C    -3.53578  -3.47653  -1.60145
C    -3.24306  -4.59720  -2.35695
H    -3.50500  -4.62156  -3.40322
C    -2.61205  -5.68776  -1.78636
H    -2.38870  -6.55918  -2.38389
C    -2.26233  -5.65851  -0.45083
H    -1.77118  -6.51662  -0.01706
C    -2.51064  -4.54537   0.34029
C    -4.17265  -2.25630  -2.22058
H    -4.46009  -1.58369  -1.40451
C    -5.43010  -2.60966  -3.01569
H    -5.92494  -1.69953  -3.34796
H    -6.12406  -3.17619  -2.39827
H    -5.18794  -3.20082  -3.89493
C    -3.15579  -1.53265  -3.10709
H    -3.58901  -0.62015  -3.51100
H    -2.85342  -2.16743  -3.93671
H    -2.26333  -1.26841  -2.54411
C    -2.11101  -4.57059   1.79814
H    -2.48382  -3.66770   2.29440
C    -0.58490  -4.58861   1.91855
H    -0.14797  -3.72063   1.42718
H    -0.17612  -5.48019   1.44992
H    -0.28600  -4.57851   2.96471
C    -2.72271  -5.76979   2.52661
H    -2.49611  -5.71230   3.58960
H    -2.32721  -6.70728   2.14560
H    -3.80333  -5.77620   2.40191
C    -2.77238  -1.59582   1.15558
H    -1.68307  -1.75911   1.23485
C    -3.27645  -0.42642   1.85259
C    -2.37961   0.50420   2.40495
C    -2.87208   1.64168   3.03514
H    -2.18658   2.37206   3.44156
C    -4.23717   1.84400   3.14498
H    -4.60664   2.72720   3.64441
C    -5.12472   0.92243   2.60980
H    -6.18848   1.08683   2.69313
C    -4.64737  -0.20163   1.96458
H    -5.31717  -0.92861   1.53173
C    -0.14928  -1.07136   3.30723
C     1.17141  -1.50960   3.25559
H     1.84351  -1.07455   2.52592
C     1.60846  -2.48853   4.12683
H     2.63270  -2.82750   4.08820
C     0.72692  -3.03776   5.04565
H     1.06737  -3.80376   5.72646
C    -0.59071  -2.61136   5.08918
H    -1.27680  -3.04540   5.80170
C    -1.03504  -1.62860   4.22227
H    -2.06288  -1.29351   4.25736
C     0.15533   1.70165   2.94076
C     0.55826   2.74864   2.11792
H     0.41540   2.66387   1.04742
C     1.13867   3.87701   2.66769
H     1.44951   4.68884   2.02750
C     1.32743   3.95876   4.03793
H     1.78672   4.83651   4.46727
C     0.93385   2.91379   4.85955
H     1.08531   2.97852   5.92698
C     0.34800   1.78504   4.31730
H     0.03932   0.96862   4.95611
O     0.40237  -0.19708  -1.58800
