40

Re    0.00000   0.00000   0.00000
O    -2.64570   0.03004  -1.60814
O    -0.65132  -2.78347   1.18354
O    -1.32638   1.60197   2.28270
O     0.75459   4.56711  -0.04782
O    -2.39065   5.49462  -3.17688
N     1.93783   0.16546   0.92714
N     0.82500   1.87898  -0.80543
N    -0.81443   5.03238  -1.62687
N    -1.46287   3.42142  -3.20315
N    -0.44791   1.32997  -3.28308
H    -1.06273   1.04192  -4.02206
H     0.20395   0.63531  -2.92532
C    -1.66860  -0.00011  -1.00249
C    -0.45332  -1.73857   0.76015
C    -0.83536   1.00190   1.44267
C     1.98183   2.18331  -0.31689
H     2.49410   3.10203  -0.57390
C    -0.95870   6.38588  -1.11593
H    -1.98466   6.54787  -0.78954
H    -0.72331   7.10274  -1.90096
H    -0.27291   6.49607  -0.28007
C    -2.27002   3.08026  -4.35942
H    -2.92741   2.23949  -4.13288
H    -1.63753   2.85017  -5.21817
H    -2.87828   3.95425  -4.58884
C     2.64086   1.25884   0.56959
C     2.52076  -0.72943   1.71718
H     1.93211  -1.59918   1.98067
C     3.81239  -0.58868   2.19182
H     4.23504  -1.34917   2.82786
C     4.54192   0.53878   1.83504
H     5.55134   0.67798   2.18984
C     3.94760   1.47416   1.01351
H     4.46935   2.36531   0.70252
C     0.12824   2.84195  -1.53124
C     0.09281   4.18329  -0.99708
C    -1.61244   4.70805  -2.68943
C    -0.61217   2.50241  -2.65816
O     0.83730  -0.75020  -1.20773
