49

C    -1.25385   4.07062   0.49573
H    -0.78197   3.98183   1.47452
H    -0.66914   4.76764  -0.10544
C     0.46248   3.65536  -2.53565
H    -0.43526   4.25121  -2.38798
H     0.64979   3.59006  -3.60447
H     1.30357   4.17086  -2.07997
C     1.14342   2.67119   0.27568
H     0.90095   2.46382   1.31903
H     1.24581   3.75330   0.14599
C    -1.29665   2.69740  -0.19356
H    -1.83326   2.83383  -1.13838
C    -2.13697   1.73359   0.68173
H    -1.64783   1.68074   1.66068
C    -3.54012   2.32702   0.86471
H    -4.01583   2.45023  -0.10982
H    -4.14800   1.65145   1.46706
C    -4.30095  -0.17933  -1.13838
H    -4.50751  -1.15068  -0.69954
H    -4.62529  -0.21236  -2.17641
H    -4.89890   0.56574  -0.62330
C    -2.80531   0.14427  -1.13012
H    -2.28362  -0.67149  -1.63736
H    -2.64273   1.04116  -1.72752
N     0.03429   2.13512  -0.53713
N    -2.13499   0.34594   0.17151
Zn    0.00000   0.00000   0.00000
Cl    0.50548  -1.22680  -1.78157
C     0.30382   2.24100  -1.98230
H    -0.51013   1.73612  -2.50683
H     1.20548   1.66798  -2.19601
C    -2.65516   4.64036   0.68860
H    -3.13970   4.77831  -0.28116
H    -2.58483   5.61807   1.16792
C     2.48806   2.02389  -0.03061
H     2.40398   0.93635  -0.05223
H     3.18768   2.28730   0.75889
H     2.90049   2.36297  -0.97736
C    -2.27772  -2.04660   0.86675
H    -2.76625  -2.38739  -0.04134
H    -2.59880  -2.67975   1.69053
H    -1.20107  -2.17220   0.74586
C    -3.48108   3.69033   1.54253
H    -3.02636   3.59333   2.53010
H    -4.49204   4.07986   1.67420
C    -2.61031  -0.59812   1.19679
H    -3.69053  -0.49704   1.35029
H    -2.10731  -0.34300   2.13176
O     0.47364  -0.10339   1.57717
