37

Zn    0.00000   0.00000   0.00000
Br   -0.86956   0.13212   2.19850
N     1.75278  -1.39289   0.05698
N     1.66390   1.50309  -0.07583
C     1.63442   2.10546  -1.41303
H     0.62435   2.45500  -1.62470
H     1.89419   1.36824  -2.16907
H     2.30937   2.96187  -1.49144
C     1.50853  -2.50367  -0.86804
H     1.39157  -2.13135  -1.88413
H     0.58738  -3.01240  -0.58424
H     2.32187  -3.23560  -0.84988
C     1.84725  -1.93661   1.41576
H     0.87828  -2.34108   1.70629
H     2.10316  -1.15241   2.12425
H     2.58206  -2.74327   1.48381
C     1.41121   2.55668   0.91148
H     2.18692   3.32851   0.89043
H     1.36192   2.13270   1.91287
H     0.45348   3.03010   0.69692
C     4.27243  -1.31894   0.01276
H     4.35261  -1.40958   1.09701
H     4.28998  -2.32163  -0.41770
C     4.17892   1.57228  -0.24937
H     4.17368   2.57597   0.17954
H     4.16417   1.66360  -1.33631
C     2.93695   0.80497   0.22607
H     2.98387   0.72135   1.31775
C     2.95264  -0.62533  -0.35438
H     2.89774  -0.54333  -1.44600
C     5.46452   0.85590   0.14441
H     6.32302   1.43599  -0.19727
H     5.52917   0.76940   1.23122
C     5.47774  -0.53052  -0.48388
H     5.44679  -0.44283  -1.57205
H     6.39339  -1.05992  -0.21631
O    -0.60233  -0.13688  -1.53002
