69

Ta    0.00000   0.00000   0.00000
Cl    0.46351  -1.20772   1.96681
Cl   -0.83093   0.21087  -2.17231
Si   -4.39110   0.71076   1.06759
C    -4.64092   1.87882  -0.42144
C    -4.08704   1.71474   2.66592
C    -5.83720  -0.50538   1.28048
O    -1.67851   0.36311   0.63219
N    -2.85926  -1.54198   0.44560
N    -1.72105  -2.09132  -0.00689
C    -2.81958  -0.28173   0.69359
C    -1.38864  -3.31520   0.22216
C     2.76008   2.58359   0.57855
C     1.70586   2.58726  -0.27539
C     0.47031   2.29444   0.48994
C     0.92645   2.19729   1.89854
C     2.27710   2.33391   1.92862
C     4.20514   2.77399   0.26743
C     1.69499   2.87226  -1.74324
C    -0.72870   3.17349   0.19392
C    -0.01543   2.03295   3.05019
C     3.18580   2.25858   3.10744
C     0.18042  -3.29328  -1.70109
C     1.35561  -3.69847  -2.30352
C     2.19649  -4.59227  -1.65885
C     1.85233  -5.08926  -0.41216
C     0.67305  -4.69768   0.19298
C    -0.17386  -3.79096  -0.44446
C    -2.28360  -5.55679   0.79131
C    -3.00460  -6.39529   1.61931
C    -3.56590  -5.90617   2.78853
C    -3.40461  -4.57258   3.12669
C    -2.69491  -3.72465   2.29750
C    -2.12661  -4.20986   1.12092
H    -5.44329   2.58846  -0.24195
H    -4.89136   1.31565  -1.31606
H    -3.73830   2.44407  -0.63752
H    -3.32103   2.47288   2.52815
H    -3.76918   1.07438   3.48460
H    -4.99313   2.22329   2.98160
H    -6.77574   0.02227   1.41378
H    -5.69324  -1.14855   2.14270
H    -5.93496  -1.14859   0.41234
H     4.62599   3.56991   0.88087
H     4.35246   3.02637  -0.77861
H     4.75596   1.85801   0.48348
H     0.96949   2.24256  -2.25725
H     2.67288   2.68873  -2.18043
H     1.43099   3.91562  -1.92652
H    -1.00383   3.11028  -0.85817
H    -0.48164   4.21123   0.42399
H    -1.58455   2.88095   0.79963
H     0.45844   1.48673   3.86240
H    -0.90380   1.48106   2.74603
H    -0.32517   3.00809   3.43150
H     2.63853   1.99276   4.00729
H     3.67725   3.21797   3.27141
H     3.96078   1.51214   2.93634
H    -0.48361  -2.60654  -2.20658
H     1.62079  -3.30960  -3.27514
H     3.12099  -4.89778  -2.12590
H     2.51016  -5.77984   0.09457
H     0.41805  -5.06607   1.17561
H    -1.85384  -5.93483  -0.12485
H    -3.12885  -7.43482   1.35372
H    -4.12580  -6.56501   3.43572
H    -3.83311  -4.19189   4.04196
H    -2.55096  -2.69083   2.57002
O     1.48809  -0.42292  -0.57378
