59

Ni    0.00000   0.00000   0.00000
O     1.97472  -0.90985   0.89886
H     1.89575  -0.91019   1.85841
H     2.77996  -0.45005   0.64586
O    -1.08255   5.23537  -1.73918
O     0.70205   6.40083  -1.44750
N     0.40832   2.17537   0.58439
N     0.06568   3.96885   2.18014
N     2.23382   3.66560   1.19198
N    -0.01402   5.45365  -1.21102
C    -0.29172   2.61583   1.80809
H    -1.36868   2.55604   1.63927
H    -0.03203   1.94968   2.63287
C     1.50269   4.04703   2.39070
H     1.77381   5.06792   2.66933
H     1.77714   3.37231   3.20491
C     1.85889   2.31685   0.82175
H     2.14258   1.65613   1.64587
H     2.39379   2.03428  -0.08909
C     0.02774   3.08020  -0.51001
H    -1.04948   3.00525  -0.66970
H     0.54003   2.76123  -1.42163
C     0.41299   4.52474  -0.15783
C     1.92217   4.58860   0.11256
H     2.48560   4.29725  -0.77793
H     2.23076   5.59608   0.40150
C    -0.32845   4.90080   1.15120
H    -0.06632   5.91569   1.46429
H    -1.41013   4.84077   1.00130
Cl   -0.99033  -0.35580   1.79469
O    -1.97479   0.90973  -0.89863
H    -1.89622   0.90992  -1.85820
H    -2.78004   0.45017  -0.64521
O     1.08257  -5.23535   1.73953
O    -0.70194  -6.40090   1.44757
N    -0.40816  -2.17546  -0.58420
N    -0.06529  -3.96878  -2.18009
N    -2.23352  -3.66578  -1.19205
N     0.01461  -5.45425   1.21046
C     0.29201  -2.61577  -1.80788
H     1.36896  -2.55595  -1.63896
H     0.03237  -1.94954  -2.63261
C    -1.50228  -4.04704  -2.39076
H    -1.77332  -5.06793  -2.66951
H    -1.77673  -3.37226  -3.20491
C    -1.85871  -2.31703  -0.82168
H    -2.14239  -1.65625  -1.64574
H    -2.39368  -2.03458   0.08915
C    -0.02761  -3.08037   0.51015
H     1.04960  -3.00539   0.66989
H    -0.53997  -2.76143   1.42175
C    -0.41269  -4.52493   0.15775
C    -1.92185  -4.58886  -0.11270
H    -2.48537  -4.29765   0.77779
H    -2.23036  -5.59634  -0.40176
C     0.32885  -4.90082  -1.15127
H     0.06678  -5.91570  -1.46446
H     1.41052  -4.84076  -1.00128
O     0.78563   0.28105  -1.42348
