49

Fe    0.00000   0.00000   0.00000
Br    0.56916  -1.05193  -1.96005
S     1.25629  -3.96702   2.07255
S    -2.48988   3.23656  -2.22769
N     1.66013  -0.25942   0.73925
N     0.66482   1.65742  -0.42658
N    -0.11764  -2.07279   0.96178
N    -1.67307   1.00050  -1.20644
C     2.11146  -1.38087   1.32028
C     3.43341  -1.46443   1.79759
H     3.75578  -2.38690   2.25588
C     4.28736  -0.39245   1.68769
H     5.29779  -0.45522   2.06087
C     3.83146   0.79877   1.07667
C     4.54543   2.00976   0.86438
H     5.56945   2.06317   1.20379
C     3.97602   3.09435   0.25345
H     4.55327   3.99740   0.11960
C     2.63638   3.07891  -0.22256
C     1.92184   4.11698  -0.86439
H     2.39681   5.06912  -1.04304
C     0.62121   3.90028  -1.25410
H     0.05088   4.67571  -1.74232
C     0.00392   2.65429  -1.03345
C     1.93153   1.88412  -0.03034
C     2.50762   0.77993   0.62013
C    -1.30766   2.24181  -1.42195
C    -2.90308   0.73445  -1.71622
C    -3.53909   1.84952  -2.30342
C    -4.80379   1.74895  -2.85690
H    -5.28019   2.61145  -3.29550
C    -5.42509   0.51549  -2.83883
H    -6.41073   0.41261  -3.26621
C    -4.78919  -0.60291  -2.29988
H    -5.28781  -1.55982  -2.32939
C    -3.53442  -0.50742  -1.74210
H    -3.01252  -1.36817  -1.35706
C     1.08408  -2.37080   1.39574
C    -1.00420  -3.07697   1.18345
C    -0.43765  -4.22966   1.76896
C    -1.20418  -5.34825   2.04636
H    -0.75554  -6.22428   2.48732
C    -2.55263  -5.30163   1.75142
H    -3.17038  -6.16182   1.95896
C    -3.13167  -4.15360   1.21099
H    -4.19370  -4.13751   1.01925
C    -2.37327  -3.04032   0.92785
H    -2.81076  -2.13208   0.54688
O    -0.75078   0.55282   1.36133
