57

Pt    0.00000   0.00000   0.00000
I     1.01244   2.42708  -0.00079
P    -0.93982  -2.13270   0.13437
O     2.62718  -0.65129   1.29829
C     1.60762  -0.44936   0.82262
C     0.40642  -3.40080  -0.04547
H     1.03986  -3.21067   0.83336
C     1.27659  -3.13801  -1.27650
H     1.55174  -2.07538  -1.32268
H     0.73202  -3.37835  -2.18945
C     2.52893  -4.00758  -1.20325
H     3.15440  -3.83061  -2.07948
H     3.11002  -3.73878  -0.31826
C     2.13991  -5.48269  -1.13198
H     1.62438  -5.76451  -2.05298
H     3.03691  -6.09858  -1.05150
C     1.22446  -5.74791   0.06067
H     0.92997  -6.79899   0.07596
H     1.76505  -5.53945   0.98684
C    -0.02174  -4.86486  -0.00899
H    -0.66221  -5.05735   0.85477
H    -0.57845  -5.11391  -0.91363
C    -1.58587  -2.30738   1.86484
H    -2.08973  -3.27520   1.97097
C    -0.46497  -2.21260   2.90036
H     0.23407  -3.04427   2.79192
H     0.08512  -1.27604   2.74388
C    -1.03185  -2.22434   4.31859
H    -0.21267  -2.14714   5.03560
H    -1.54358  -3.17362   4.49645
C    -2.01134  -1.07345   4.51660
H    -2.41529  -1.09769   5.52987
H    -1.48755  -0.12440   4.38584
C    -3.14188  -1.17248   3.49920
H    -3.83224  -0.33681   3.62332
H    -3.70181  -2.09683   3.66495
C    -2.58339  -1.16430   2.08062
H    -3.40406  -1.23181   1.36383
H    -2.06240  -0.21139   1.90130
C    -2.38757  -2.50291  -0.96356
H    -2.98957  -1.58731  -0.88351
C    -3.27255  -3.68775  -0.57918
H    -3.60804  -3.60738   0.45600
H    -2.73102  -4.62787  -0.69021
C    -4.49770  -3.70479  -1.49523
H    -5.13449  -4.55302  -1.23545
H    -5.07644  -2.79182  -1.33920
C    -4.08418  -3.79318  -2.96114
H    -4.97191  -3.78581  -3.59556
H    -3.55916  -4.73607  -3.13432
C    -3.17073  -2.62801  -3.33002
H    -2.85841  -2.71241  -4.37250
H    -3.71136  -1.68646  -3.21772
C    -1.94433  -2.61598  -2.42234
H    -1.29950  -1.76960  -2.67606
H    -1.38423  -3.54100  -2.57534
O    -1.37592   0.49050  -0.76730
