37

Pt    0.00000   0.00000   0.00000
Cl   -0.89005   0.20282   2.16038
N     1.17148   1.86014   0.43600
N    -1.36568   1.75733  -0.70143
C    -1.08447  -1.72666  -0.32669
H    -0.67234  -2.28024  -1.17114
H    -2.12461  -1.48317  -0.54034
H    -1.06607  -2.35949   0.56112
C     1.49030  -1.26812   0.63398
H     1.56178  -1.19400   1.71922
H     2.41249  -0.92394   0.16386
H     1.33517  -2.30807   0.35726
C     2.35040   1.95051   1.02626
H     2.81888   1.02128   1.31750
C     2.97658   3.16270   1.27570
H     3.93925   3.18410   1.76064
C     2.34100   4.33216   0.88906
H     2.79787   5.29482   1.06257
C     1.10409   4.23909   0.27848
H     0.57077   5.12430  -0.03289
C     0.54159   2.97873   0.06941
C    -0.77231   2.86523  -0.54764
H    -1.20777   3.81725  -0.85205
C    -2.68652   1.66961  -1.29089
C    -3.29342   3.00218  -1.74687
H    -3.42802   3.68993  -0.91365
H    -4.27233   2.80142  -2.17434
H    -2.68403   3.47651  -2.51424
C    -3.59431   1.05735  -0.21432
H    -3.81115   1.79722   0.55355
H    -3.10659   0.21589   0.26896
H    -4.52947   0.72478  -0.65638
C    -2.56320   0.74838  -2.51160
H    -3.55026   0.47647  -2.87582
H    -2.01222  -0.15284  -2.26246
H    -2.02185   1.25716  -3.30641
O     0.64728  -0.00392  -1.51773
