40

Pt    0.00000   0.00000   0.00000
N     1.21295  -1.76650  -0.48438
N     2.14571   0.71479   0.28281
C    -1.09608   1.71797   0.31087
H    -2.12974   1.52966   0.60339
H    -1.10514   2.27191  -0.63034
H    -0.64427   2.34280   1.08310
C    -1.78818  -0.81450  -0.59483
H    -1.55038  -1.74225  -1.11938
H    -2.27279  -0.14306  -1.30358
H    -2.47892  -1.02814   0.22027
C    -0.31675  -0.61063   1.94126
H     0.64255  -0.56670   2.45819
H    -0.66123  -1.64570   1.95014
H    -1.03726  -0.00910   2.49235
C     0.85046  -3.00483  -0.77356
H    -0.03508  -3.37495  -0.27297
C     1.55118  -3.80944  -1.65805
H     1.21178  -4.81131  -1.86685
C     2.68196  -3.29017  -2.27315
H     3.24311  -3.87921  -2.98309
C     3.08254  -2.00789  -1.95249
H     3.95920  -1.56833  -2.40256
C     2.31691  -1.26254  -1.05259
C     2.75819   0.05355  -0.61680
H     3.70228   0.38254  -1.05183
C     2.70530   1.95893   0.78953
C     2.22619   3.10463  -0.11059
H     1.14284   3.16456  -0.10889
H     2.55104   2.93573  -1.13511
H     2.63606   4.04839   0.24084
C     2.18338   2.13617   2.21894
H     1.10769   1.99334   2.24744
H     2.41896   3.13216   2.58484
H     2.64412   1.40429   2.87921
C     4.24184   1.95727   0.82917
H     4.57933   2.79140   1.43897
H     4.67636   2.07612  -0.16054
H     4.61398   1.03466   1.27254
O     0.38775   0.36767  -1.56108
