40

Pt    0.00000   0.00000   0.00000
N     1.03598   1.43557   1.34849
N     2.24205  -0.62479  -0.08248
C    -0.95997  -1.39599  -1.18937
H    -1.97309  -1.61730  -0.84912
H    -0.41088  -2.33987  -1.20047
H    -1.02846  -1.02133  -2.21369
C    -0.37679  -1.19192   1.64632
H    -0.77009  -0.58037   2.46091
H     0.57161  -1.61987   1.97776
H    -1.07670  -2.00700   1.47212
C    -1.87374   0.83923   0.16288
H    -2.48818   0.38567   0.94047
H    -2.40959   0.78199  -0.78519
H    -1.71843   1.89645   0.39144
C     0.50520   2.41684   2.06111
H    -0.57250   2.42077   2.15343
C     1.26234   3.40457   2.66916
H     0.77795   4.18869   3.22850
C     2.64248   3.36465   2.53482
H     3.26486   4.12444   2.98242
C     3.20312   2.32566   1.81743
H     4.27245   2.24853   1.69347
C     2.36756   1.37055   1.23515
C     2.94440   0.26583   0.48933
H     4.03305   0.26897   0.46178
C     2.86690  -1.72206  -0.80179
C     2.33819  -3.01771  -0.17092
H     2.73415  -3.13408   0.83674
H     2.64719  -3.87238  -0.76668
H     1.25417  -3.00291  -0.11343
C     2.43078  -1.61490  -2.26803
H     1.35084  -1.55162  -2.34614
H     2.77279  -2.48664  -2.81978
H     2.85713  -0.72289  -2.72193
C     4.39991  -1.74928  -0.75449
H     4.83099  -0.87389  -1.23691
H     4.74150  -2.62737  -1.29643
H     4.77103  -1.82213   0.26714
O     0.36673   1.04869  -1.21994
