57

Ti    0.00000   0.00000   0.00000
Cl    1.44374  -0.02667  -1.74911
N     1.31157  -1.53404   0.67063
N    -0.93411  -1.88079  -0.90728
O    -0.93664  -0.47685   1.41697
O    -1.19860   0.87806  -0.84224
C    -1.08199  -1.62945   2.04063
C    -0.69492  -1.79547   3.38414
C    -0.79670  -3.05031   3.95659
C    -1.27318  -4.15140   3.25166
C    -1.66541  -3.97470   1.93372
C    -1.57217  -2.73474   1.32181
C    -0.18218  -0.61115   4.14871
C    -1.35913  -5.49260   3.91714
C    -2.00255  -2.48911  -0.09566
C    -2.36317   0.66559  -1.42031
C    -3.39129   1.62156  -1.31051
C    -4.60485   1.37612  -1.92308
C    -4.83940   0.20826  -2.64363
C    -3.82565  -0.73371  -2.73051
C    -2.59149  -0.52627  -2.13063
C    -3.10605   2.86246  -0.52148
C    -6.16609  -0.01343  -3.30625
C    -1.47424  -1.53269  -2.23395
C     0.18416  -2.81718  -1.01672
C     1.03777  -2.76199   0.22064
C     1.56982  -3.89758   0.82127
C     2.40387  -3.74949   1.91531
C     2.70182  -2.47007   2.35934
C     2.13064  -1.38909   1.70804
H    -0.49061  -3.17877   4.98560
H    -2.04990  -4.81475   1.37097
H     0.67646  -0.88493   4.75880
H    -0.95894  -0.22802   4.81076
H     0.09705   0.18514   3.45683
H    -1.68349  -6.25565   3.21452
H    -2.06869  -5.46100   4.74301
H    -0.39062  -5.78042   4.32372
H    -2.84912  -1.78934  -0.09500
H    -2.33204  -3.43298  -0.56117
H    -5.39354   2.11064  -1.83964
H    -3.99422  -1.64892  -3.28175
H    -4.02003   3.40508  -0.29505
H    -2.59457   2.59572   0.40759
H    -2.43688   3.51563  -1.08364
H    -6.21500  -0.99982  -3.75993
H    -6.97496   0.07924  -2.58304
H    -6.32884   0.73243  -4.08346
H    -0.65413  -1.09859  -2.82092
H    -1.84001  -2.43957  -2.74213
H    -0.16661  -3.84459  -1.20339
H     0.82077  -2.49298  -1.85222
H     1.32582  -4.87661   0.43930
H     2.81990  -4.61590   2.40680
H     3.36156  -2.31095   3.19688
H     2.33366  -0.36649   2.01212
O     0.77735   1.24251   0.75789
