49

Zn    0.00000   0.00000   0.00000
N    -0.69795  -1.84125   0.36632
N     1.74529  -0.48527   0.85391
N     0.48600   1.87052   1.05711
N    -2.08990   0.44119   0.53820
C    -2.76209  -0.73742   0.07094
C    -4.08541  -0.70379  -0.32680
C    -4.71372  -1.85745  -0.76700
C    -4.00469  -3.04590  -0.81109
C    -2.67798  -3.08905  -0.42937
C    -2.03026  -1.93647   0.02319
C     0.01607  -2.87791   0.74022
C     1.35832  -2.84571   1.10649
C     2.14327  -1.69766   1.16300
C     2.56904   0.61708   0.94447
C     3.96565   0.60032   0.90053
C     4.68418   1.77945   0.93362
C     4.03447   3.00056   0.99597
C     2.64998   3.03595   1.03269
C     1.92043   1.86207   1.01342
C    -0.02351   1.84102   2.43216
C    -1.54834   1.89219   2.47531
C    -2.22926   0.61618   1.98778
C     1.98507  -4.13916   1.57445
C     1.82628  -4.32122   3.08514
H     0.16056   2.72686   0.61010
H    -2.50509   1.24797   0.07372
H    -4.62631   0.23286  -0.30400
H    -5.74543  -1.82520  -1.08132
H    -4.48599  -3.94627  -1.16318
H    -2.12990  -4.01441  -0.51880
H    -0.48054  -3.84643   0.82762
H     3.15598  -1.82952   1.54942
H     4.48965  -0.33795   0.80176
H     5.76284   1.74590   0.89331
H     4.59951   3.91974   1.00646
H     2.13286   3.98567   1.06469
H     0.32917   0.91792   2.89889
H     0.37967   2.68879   3.00712
H    -1.85274   2.06520   3.50932
H    -1.89903   2.73981   1.87981
H    -3.29337   0.64863   2.26786
H    -1.77827  -0.25271   2.47353
H     1.51837  -4.98234   1.06184
H     3.04742  -4.14703   1.32315
H     2.27989  -5.25558   3.40860
H     2.30391  -3.50173   3.61787
H     0.77276  -4.33548   3.35605
O     0.01110   0.54471  -1.55746
