37

Pd    0.00000   0.00000   0.00000
Se    1.24708  -1.22241   1.55749
Cl   -1.29665   1.10389  -1.48262
C     2.85796  -0.06108   1.41901
H     2.72433   0.71520   2.17613
H     3.74451  -0.64518   1.67247
C     2.99373   0.51443   0.01620
H     3.22978  -0.30869  -0.66909
H     3.84278   1.21024   0.00937
C     1.83514  -2.57467   0.29947
N     1.77409   1.16384  -0.48954
C     1.44956   2.43135   0.19230
H     1.38046   2.25145   1.27383
H     0.45859   2.73914  -0.17143
C     3.29321  -4.40344  -0.22602
H     4.09362  -5.07157   0.05467
C     2.86173  -3.43614   0.66395
H     3.31558  -3.34730   1.64135
C     1.22068  -2.69483  -0.94240
H     0.38509  -2.03487  -1.22068
C     2.44463   3.55634  -0.10010
H     2.10149   4.46212   0.40140
H     3.43335   3.31734   0.29904
C     2.89018   2.48079  -2.30809
H     2.86864   2.61892  -3.38950
H     3.90343   2.17533  -2.03631
C     2.52998   3.78701  -1.60608
H     3.26986   4.55717  -1.83073
H     1.56061   4.13165  -1.97069
C     1.65562  -3.67172  -1.82285
H     1.17978  -3.76987  -2.78688
C     1.87423   1.39896  -1.93880
H     2.12333   0.44993  -2.42673
H     0.88111   1.70846  -2.28268
C     2.69149  -4.52076  -1.46863
H     3.02540  -5.28062  -2.15884
O    -1.30338  -0.88689   0.48696
