34

Pt    0.00000   0.00000   0.00000
Cl   -1.83339  -1.10063   0.67812
O     2.42864   3.52369   1.25427
N     1.69511   1.04806  -0.37600
N     0.63711   0.29810   1.88107
C     3.30497   3.69063   0.22394
C     4.38491   4.55909   0.30988
C     5.25067   4.70530  -0.75925
C     5.04022   3.99225  -1.92710
C     3.95846   3.13594  -2.02419
C     3.08840   2.96384  -0.95455
C     1.89576   2.09285  -1.08056
C     0.89807   2.51988  -2.09948
C     2.65123   0.58777   0.61192
C     1.95129   0.55796   1.94568
C     2.59397   0.77556   3.15043
C     1.85774   0.71876   4.32544
C     0.49991   0.44739   4.24667
C    -0.07457   0.24410   3.00545
H     2.63612   4.14144   1.96567
H     4.54114   5.12241   1.22051
H     6.08751   5.38159  -0.67769
H     5.71265   4.10733  -2.76226
H     3.78578   2.57846  -2.93158
H     0.91019   3.60051  -2.22167
H     1.13525   2.05690  -3.05715
H    -0.09701   2.17443  -1.81628
H     3.56034   1.19727   0.64737
H     2.93246  -0.44025   0.34182
H     3.65305   0.98118   3.16615
H     2.33577   0.88261   5.27887
H    -0.10823   0.39231   5.13481
H    -1.12490   0.01283   2.88681
O    -0.38283  -0.32433  -1.57186
