35

Pd    0.00000   0.00000   0.00000
S     1.31004  -1.43970  -1.29028
Cl   -1.26171   1.38601   1.21876
N     1.79595   0.42054   1.18923
C     1.93033   1.86053   1.46675
H     0.94719   2.21494   1.79800
H     2.20295   2.38512   0.54615
C     2.95768   2.14466   2.56777
H     3.97385   1.86625   2.24288
H     2.95093   3.20758   2.81301
C     2.52577   0.08080   3.55989
H     2.19852  -0.33807   4.51288
H     3.51564  -0.34091   3.31776
C     1.50007  -0.25374   2.46888
H     1.44949  -1.33813   2.32146
H     0.51631   0.10926   2.79589
C     2.98408  -0.10662   0.50247
H     3.25727   0.60957  -0.28170
H     3.83999  -0.20103   1.18423
C     2.74987  -1.46201  -0.14978
H     2.51460  -2.23711   0.58007
H     3.63237  -1.76504  -0.71364
C     1.90762  -0.24218  -2.48518
C     2.96519  -0.59320  -3.31115
H     3.41319  -1.57208  -3.22701
C     3.43132   0.31354  -4.24682
H     4.25500   0.04271  -4.88974
C     2.83284   1.55742  -4.36629
H     3.19418   2.26012  -5.10146
C     1.76391   1.89580  -3.55209
H     1.28889   2.85953  -3.65255
C     1.29459   0.99904  -2.60625
H     0.43172   1.25940  -1.97423
O     2.63212   1.47042   3.76206
O    -1.33393  -0.39775  -0.88597
