49

Pd    0.00000   0.00000   0.00000
O    -7.58118  -5.29346  -1.54775
N    -0.97029  -1.72378  -0.11151
N    -2.59943  -3.16755  -0.37291
C    -2.21928  -1.87989  -0.49440
H    -2.85718  -1.09991  -0.86934
C    -0.51877  -2.94918   0.27651
H     0.48508  -3.10180   0.63000
C    -1.52310  -3.85551   0.11333
H    -1.55872  -4.90305   0.32648
C    -3.87343  -3.68670  -0.66523
C    -4.00501  -4.96099  -1.21063
H    -3.12694  -5.54924  -1.42830
C    -5.25581  -5.46256  -1.48995
H    -5.37653  -6.44588  -1.91470
C    -6.40243  -4.70432  -1.23480
C    -8.77693  -4.58380  -1.31965
H    -9.57715  -5.24617  -1.64507
H    -8.81232  -3.65936  -1.90410
H    -8.90899  -4.35117  -0.25856
C    -6.26406  -3.43020  -0.69002
H    -7.12575  -2.81961  -0.47505
C    -5.00706  -2.92869  -0.40584
H    -4.91207  -1.94892   0.03652
Br   -1.95420   1.00445   1.06748
O     7.58440   5.28424   1.55496
N     0.96954   1.72422   0.11250
N     2.60011   3.16585   0.37703
C     2.21850   1.87843   0.49628
H     2.85542   1.09717   0.87019
C     0.51943   2.95078  -0.27351
H    -0.48410   3.10505  -0.62718
C     1.52473   3.85575  -0.10858
H     1.56158   4.90360  -0.31998
C     3.87470   3.68298   0.67046
C     4.00782   4.95645   1.21743
H     3.13047   5.54555   1.43567
C     5.25921   5.45612   1.49749
H     5.38113   6.43881   1.92337
C     6.40493   4.69680   1.24149
C     8.77935   4.57374   1.32531
H     9.58040   5.23509   1.65074
H     8.81440   3.64871   1.90886
H     8.91039   4.34199   0.26390
C     6.26501   3.42340   0.69544
H     7.12595   2.81191   0.48002
C     5.00742   2.92378   0.41055
H     4.91130   1.94462  -0.03290
O     1.31963  -0.67757  -0.72248
