48

Pd    0.00000   0.00000   0.00000
Cl   -0.19853   0.49448   2.14114
N     0.14171   1.97393  -0.58930
C     0.11680   3.05692   0.18407
H    -0.00789   2.87035   1.24529
C     0.24359   4.33451  -0.33236
H     0.21974   5.18511   0.32924
C     0.40300   4.50029  -1.70342
H     0.50714   5.48570  -2.13100
C     0.42855   3.37896  -2.51255
H     0.55501   3.45405  -3.58111
C     0.29433   2.12503  -1.92239
C     0.31178   0.88160  -2.65802
C     0.44384   0.52616  -3.98772
H     0.56290   1.10531  -4.87896
N     0.18709  -0.28531  -1.95642
N     0.23346  -1.28564  -2.75552
N     0.38815  -0.81746  -3.98487
C     0.44120  -1.70671  -5.10956
H     0.63614  -1.10648  -5.99937
H     1.24899  -2.42783  -4.95689
C    -0.87926  -2.48213  -5.24844
H    -0.78834  -3.18976  -6.08346
H    -1.07632  -3.02552  -4.32187
O    -2.01160  -1.66058  -5.42376
C    -2.08025  -0.92998  -6.59467
H    -1.59337  -1.46417  -7.43603
C    -3.56396  -0.74906  -6.94567
H    -4.09252  -0.42528  -6.03870
C    -3.74147   0.31331  -8.03751
H    -3.28785  -0.06071  -8.96808
C    -3.02799   1.60995  -7.62414
H    -3.48148   1.98100  -6.69442
C    -1.55313   1.28552  -7.35825
H    -1.10192   0.93375  -8.30305
C    -0.80878   2.53293  -6.86216
H    -1.01205   3.35481  -7.55743
H    -1.18708   2.78985  -5.87059
O    -1.42223   0.30105  -6.36074
O    -4.03079  -1.99207  -7.38868
H    -4.97498  -1.90212  -7.56956
O    -5.12942   0.50263  -8.21511
H    -5.28313   0.96664  -9.04524
O    -3.09199   2.58615  -8.63888
H    -3.99020   2.93435  -8.67540
O     0.57063   2.32260  -6.70531
H     0.96524   2.15427  -7.56866
O    -0.08861  -1.61135   0.34381
