45

Ni    0.00000   0.00000   0.00000
N     0.87954  -1.56553  -2.31312
N     2.47306  -0.39920  -1.45873
C    -1.18134   0.60846   1.56709
C    -1.40489  -0.75831   1.31352
C    -0.17392  -1.43398   1.45001
C     0.76074  -0.53315   2.10535
C     0.13173   0.74927   2.16910
C     2.02244  -0.72373   2.65934
C     2.64730   0.35214   3.26347
C     2.04156   1.60592   3.31199
C     0.78834   1.82080   2.76761
C     1.18823  -0.76091  -1.27738
C     1.96444  -1.71385  -3.13106
C     2.96718  -0.98120  -2.59163
C    -0.45647  -2.07542  -2.55824
C    -0.43341  -3.58315  -2.78270
C    -1.08095  -1.31782  -3.72708
C     3.16947   0.56255  -0.62272
C     4.44134  -0.04549  -0.04341
C     3.43777   1.83413  -1.42204
H    -1.94453   1.37361   1.59644
H    -2.34942  -1.20517   1.03760
H    -0.04081  -2.50590   1.40448
H     2.49663  -1.69524   2.62659
H     3.62096   0.21840   3.71287
H     2.55926   2.42276   3.79357
H     0.32340   2.79517   2.81186
H     1.94832  -2.31376  -4.01668
H     3.97248  -0.83773  -2.92837
H    -1.02844  -1.84235  -1.64345
H    -1.45051  -3.96113  -2.83423
H     0.06928  -3.83044  -3.71466
H     0.08076  -4.08210  -1.96441
H    -1.07576  -0.25187  -3.50950
H    -0.52386  -1.49445  -4.64426
H    -2.10769  -1.64022  -3.87365
H     2.47260   0.80551   0.19605
H     4.21290  -0.96969   0.48169
H     5.16652  -0.25449  -0.82675
H     4.88659   0.64931   0.66258
H     3.89197   2.58211  -0.77899
H     4.10593   1.63792  -2.25755
H     2.49644   2.22607  -1.80089
O    -0.20460   1.29709  -0.99910
