61

Zr    0.00000   0.00000   0.00000
Cl   -1.39485   1.76246  -0.67088
Si    0.67998  -2.55877   2.76963
Si    2.07450  -3.07574  -0.66449
C     0.48442  -0.79841   2.14649
C    -0.66188   0.05660   2.35379
C    -1.99399  -0.22237   2.71152
H    -2.30804  -1.24410   2.87955
C    -2.87207   0.82327   2.86345
H    -3.89646   0.62653   3.14276
C    -2.46696   2.15520   2.67197
H    -3.19000   2.94467   2.81140
C    -1.17981   2.46681   2.31092
H    -0.87547   3.49416   2.16312
C    -0.25384   1.42309   2.13524
C     1.13479   1.40988   1.79428
H     1.76006   2.28557   1.66878
C     1.57753   0.08111   1.88070
H     2.61343  -0.23392   1.87038
C     0.55487  -2.36343   4.67766
H    -0.41784  -1.95817   4.94396
H     1.30122  -1.68021   5.07183
H     0.66065  -3.31376   5.19168
C    -0.70357  -3.79579   2.31889
H    -1.34562  -3.95609   3.17994
H    -0.30654  -4.76254   2.03153
H    -1.32659  -3.43169   1.50909
C     2.46507  -3.08165   2.30039
C     3.30624  -3.31981   3.38792
H     2.89617  -3.28126   4.38336
C     4.65107  -3.60366   3.24648
H     5.26463  -3.78069   4.11785
C     5.19781  -3.64723   1.97874
H     6.24979  -3.84889   1.83751
C     4.37713  -3.44246   0.88637
H     4.81725  -3.49772  -0.09578
C     3.01291  -3.16947   1.00569
C     3.25275  -3.66447  -2.06320
H     2.71395  -3.71345  -3.00555
H     3.65019  -4.65470  -1.86500
H     4.08869  -2.98794  -2.21382
C     0.55865  -4.23013  -0.75521
H     0.44477  -4.61313  -1.76484
H    -0.35872  -3.71135  -0.49678
H     0.66345  -5.08689  -0.09959
C     1.54916  -1.34937  -1.18130
C     0.50505  -1.10977  -2.13216
H    -0.12623  -1.88325  -2.55678
C     0.46756   0.24111  -2.48788
H    -0.19363   0.69784  -3.21387
C     1.53640   0.90072  -1.80456
C     1.98463   2.23396  -1.79861
H     1.43395   2.99311  -2.33779
C     3.15224   2.53759  -1.13994
H     3.51934   3.55310  -1.13789
C     3.91031   1.54154  -0.50062
H     4.85361   1.81322  -0.05045
C     3.48137   0.23714  -0.45001
H     4.08652  -0.52924   0.01793
C     2.25776  -0.10440  -1.05545
O    -1.25966  -1.05877  -0.12151
