55

Ti    0.00000   0.00000   0.00000
Cl    2.12033   0.36231   0.48302
P    -1.06837   2.69486   1.55105
N    -0.71655   1.36716   0.82002
C    -1.21309  -1.83597  -0.76206
H    -1.79584  -1.87255  -1.67374
C     0.11900  -2.27300  -0.61750
H     0.74077  -2.67976  -1.40542
C     0.45953  -2.19445   0.74340
H     1.38678  -2.53310   1.18955
C    -0.65671  -1.69125   1.44872
H    -0.74860  -1.63459   2.52743
C    -1.70005  -1.47831   0.51467
H    -2.72467  -1.21805   0.75193
C     0.13350   4.09654   1.11983
C     1.48303   3.78481   1.75914
H     1.46646   3.96332   2.83183
H     2.25259   4.42342   1.32728
H     1.75398   2.74533   1.56602
C    -0.35237   5.48252   1.53221
H    -1.31080   5.72741   1.08051
H     0.37175   6.22495   1.19813
H    -0.44815   5.56978   2.61041
C     0.28247   4.01309  -0.39895
H    -0.65240   4.24489  -0.90824
H     0.59864   3.00464  -0.68554
H     1.03546   4.72186  -0.74039
C    -1.19530   2.32210   3.40571
C     0.05146   1.52886   3.79615
H     0.91264   2.17488   3.93892
H     0.29088   0.80452   3.00863
H    -0.12180   0.99176   4.72792
C    -1.37256   3.54800   4.29206
H    -0.46156   4.13939   4.33533
H    -1.61159   3.23056   5.30684
H    -2.18384   4.18024   3.93597
C    -2.41375   1.40414   3.51864
H    -2.37328   0.64449   2.73505
H    -3.34178   1.96131   3.42085
H    -2.42413   0.90680   4.48775
C    -2.75943   3.29779   0.99582
H    -3.34880   3.64810   1.84282
H    -2.59613   4.13416   0.31378
C    -3.42660   2.17609   0.26593
C    -4.54583   1.52458   0.76762
H    -4.99218   1.85283   1.69602
C    -5.11124   0.46353   0.08047
H    -5.98483  -0.02891   0.48270
C    -4.56044   0.03364  -1.11487
H    -5.00180  -0.79747  -1.64517
C    -3.45030   0.68352  -1.63037
H    -3.02283   0.37706  -2.57474
C    -2.88804   1.74758  -0.94600
H    -2.04498   2.27274  -1.37498
O     0.12598   0.50522  -1.56569
