69

Rh    0.00000   0.00000   0.00000
P    -2.23928  -0.33632   0.32765
P     2.07295   0.80452  -0.52730
C     0.44790  -2.04833  -0.24780
C     0.66587  -1.63296   1.06633
C     0.26841  -2.08224   2.42956
C     1.72144  -1.76208   2.08565
C    -0.17826  -3.46816   2.67384
C     0.29366  -4.53927   1.91926
C    -0.14840  -5.82367   2.16384
C    -1.07915  -6.08537   3.16346
C    -1.55453  -5.01837   3.91208
C    -1.11136  -3.73094   3.67237
C    -1.54978  -7.48653   3.41269
C    -3.20546   0.04712  -1.19926
C    -2.52699  -0.57509  -2.41313
C    -2.91683  -2.00542   0.78653
C    -4.35719  -2.06098   1.27692
C    -3.04198   0.80920   1.52932
C    -2.38799   0.69571   2.89944
C     2.16773   1.40718  -2.26752
C     1.87389   0.27164  -3.23980
C     2.53351   2.33685   0.39371
C     2.28410   2.15245   1.88512
C     3.60821  -0.22960  -0.35409
C     4.88019   0.29570  -1.00625
H     1.29901  -2.23477  -0.89741
H    -0.42686  -2.64800  -0.47977
H    -0.20937  -1.35447   3.07862
H     2.13586  -0.88177   2.55743
H     2.42106  -2.58437   2.00241
H     1.00962  -4.36219   1.13048
H     0.23229  -6.64226   1.56865
H    -2.27894  -5.19490   4.69503
H    -1.49279  -2.91555   4.27232
H    -2.23324  -7.52339   4.25742
H    -2.06325  -7.87699   2.53418
H    -0.70395  -8.14093   3.62041
H    -4.23554  -0.30407  -1.09813
H    -3.21456   1.13447  -1.30386
H    -2.54372  -1.66269  -2.36078
H    -3.01481  -0.26680  -3.33604
H    -1.48362  -0.24699  -2.44422
H    -2.81374  -2.62181  -0.11166
H    -2.25667  -2.43498   1.54235
H    -4.46152  -1.58274   2.24737
H    -5.03927  -1.58044   0.57833
H    -4.66326  -3.10071   1.38387
H    -2.88868   1.81658   1.13426
H    -4.11587   0.61516   1.57670
H    -2.53096  -0.29857   3.32006
H    -1.31669   0.88154   2.80118
H    -2.80218   1.42735   3.59114
H     1.39904   2.17900  -2.35977
H     3.14077   1.86441  -2.46143
H     0.92932  -0.20395  -2.96683
H     1.79190   0.64307  -4.25972
H     2.65618  -0.48489  -3.21080
H     3.57357   2.60755   0.19668
H     1.88799   3.13118   0.01220
H     1.26485   1.78493   2.03441
H     2.98019   1.43362   2.31460
H     2.39292   3.09513   2.41811
H     3.76600  -0.35123   0.72025
H     3.37638  -1.22031  -0.75140
H     5.72133  -0.33828  -0.72868
H     4.80142   0.28887  -2.09039
H     5.10668   1.30925  -0.68328
O    -0.48018   1.54376  -0.32976
