48

Ni    0.00000   0.00000   0.00000
P     0.94812   0.32165   1.83850
O     1.47103  -1.11651   2.37735
O    -1.06533  -2.77264  -1.29389
O     0.90222  -5.83834   1.74503
N    -0.68624  -0.25456  -1.64638
C     0.96074  -2.17299   1.63307
C     0.22774  -1.89503   0.48030
C    -0.29675  -3.01863  -0.19011
C    -0.04403  -4.30463   0.26482
H    -0.42746  -5.17216  -0.24546
C     0.72052  -4.52936   1.40634
C     1.22325  -3.44885   2.11092
H     1.80393  -3.55137   3.01241
C    -1.63682  -3.85270  -1.98276
H    -2.22261  -3.41203  -2.78934
H    -2.30104  -4.43852  -1.33886
H    -0.87301  -4.51097  -2.41075
C     1.67376  -6.12707   2.88429
H     2.69538  -5.74615   2.78457
H     1.69974  -7.21333   2.95652
H     1.22052  -5.71531   3.79203
C     2.53533   1.25908   2.02435
H     3.01811   0.78553   2.88996
C     2.38242   2.75369   2.26084
H     1.86494   3.22834   1.43094
H     3.36876   3.20678   2.35112
H     1.82986   2.96032   3.17417
C     3.35569   0.97285   0.76863
H     3.44082  -0.10230   0.60428
H     4.35758   1.38991   0.85395
H     2.87262   1.41974  -0.10140
C    -0.19546   0.89066   3.18659
H    -0.37645   1.95814   3.02569
C    -1.50364   0.12669   2.99454
H    -1.87362   0.25984   1.97178
H    -2.26899   0.48141   3.68259
H    -1.35023  -0.93955   3.16372
C     0.40156   0.65219   4.56622
H     0.64808  -0.40036   4.69387
H    -0.31795   0.93155   5.33443
H     1.30575   1.23793   4.71562
C    -1.08294  -0.04696  -2.70293
C    -1.58161   0.20684  -4.01751
H    -0.77801   0.60436  -4.63719
H    -2.38247   0.94402  -3.95889
H    -1.96119  -0.71390  -4.45954
O    -0.19004   1.63772  -0.06518
