30

Pt    0.00000   0.00000   0.00000
Cl    0.02046   0.68217   2.25969
Cl   -0.20662  -2.22655   0.64554
Cl    1.60054   4.15095  -1.71094
Cl   -3.37535   5.65751  -3.07353
S     2.30435  -0.33036   0.07216
O     3.10162   0.80950  -0.28834
O     0.33208   1.92954  -0.55651
O    -2.82430  -0.72131   0.43577
H    -2.26029  -1.49966   0.65890
N    -2.01395   0.25482  -0.07736
C     2.85680  -0.91817   1.69549
H     3.92478  -1.09874   1.64342
H     2.30696  -1.81992   1.93976
H     2.63871  -0.14086   2.42064
C     2.81518  -1.72544  -0.96736
H     2.30130  -2.61686  -0.62649
H     3.89196  -1.82588  -0.88831
H     2.53029  -1.49812  -1.98976
C    -2.58919   1.29514  -0.56481
H    -3.67735   1.28809  -0.54762
C    -1.96364   2.44446  -1.13294
C    -0.55752   2.67409  -1.11061
C    -0.09229   3.87128  -1.73409
C    -0.94073   4.77258  -2.32408
H    -0.54368   5.66230  -2.78556
C    -2.31607   4.52238  -2.32590
C    -2.81760   3.38867  -1.74209
H    -3.87969   3.20272  -1.75366
O    -0.00442  -0.39882  -1.60107
