43

Pt    0.00000   0.00000   0.00000
N     0.17008  -1.55300   1.15799
N     0.57203   1.06996   1.94747
C    -0.43116  -1.41795  -1.34191
C    -0.80401  -1.30618  -2.67087
H    -0.89459  -0.33503  -3.13547
C    -1.07160  -2.44547  -3.41993
H    -1.36606  -2.34528  -4.45471
C    -0.95833  -3.70734  -2.86222
H    -1.15086  -4.58509  -3.46241
C    -0.56840  -3.86611  -1.53821
C    -0.32063  -2.71490  -0.77296
C    -0.01016  -2.71527   0.62775
H     0.03675  -3.62550   1.22061
C     0.41811  -1.34011   2.55967
H     1.00360  -2.16158   2.99320
H    -0.54125  -1.30206   3.09286
C     1.17363  -0.01536   2.73184
H     1.22163   0.25162   3.79981
H     2.19650  -0.15810   2.36926
C     1.49928   2.19268   1.85642
H     2.42080   1.87531   1.36826
H     1.74146   2.59480   2.84929
H     1.05272   2.98331   1.25502
C    -0.68325   1.52484   2.53893
H    -1.41538   0.71689   2.55723
H    -1.08846   2.33743   1.93645
H    -0.53295   1.88867   3.56493
C    -0.42076  -5.21563  -0.97219
C     0.76097  -5.60881  -0.34803
H     1.58699  -4.91368  -0.29138
C     0.89446  -6.88402   0.16481
H     1.82149  -7.17621   0.63838
C    -0.14545  -7.80325   0.07596
C    -1.32071  -7.41112  -0.55093
H    -2.14027  -8.11112  -0.63285
C    -1.45661  -6.13893  -1.07422
H    -2.37996  -5.84725  -1.55343
C     0.00639  -9.17773   0.65276
H     0.95323  -9.61962   0.34735
H    -0.80397  -9.82673   0.33046
H    -0.00323  -9.13217   1.74217
O    -0.15215   1.37718  -0.89595
