41

C    -3.65700  -0.27931   3.30959
H    -4.51596  -0.95231   3.51793
C    -3.03351   0.19947   4.63467
H    -2.16237   0.82529   4.39090
C    -4.06481   1.02964   5.40195
H    -4.91532   0.37477   5.65917
C    -4.56051   2.17685   4.51224
H    -3.70606   2.84304   4.31339
C    -5.07675   1.59687   3.19458
H    -5.97313   0.99534   3.39942
H    -5.33515   2.39917   2.50328
C    -3.00703  -1.60834   1.40973
H    -3.92881  -2.19339   1.54948
C    -1.84696  -2.57789   1.12345
H    -1.91315  -3.40910   1.83828
H    -1.94963  -2.98145   0.11280
C    -3.24238  -0.60732   0.26073
H    -3.17667  -1.13912  -0.69309
H    -4.25238  -0.19351   0.36131
C     0.35842   1.68398  -0.90858
C     1.88911  -0.46531  -0.07257
C    -0.40734  -0.94044  -1.64061
N    -0.55929  -1.89245   1.25338
H     0.18899  -2.58497   1.19341
H    -0.52171  -1.49739   2.20028
N    -2.24780   0.46781   0.29679
O    -4.09880   0.81907   2.54313
O    -2.66134  -0.95887   2.62670
O    -2.66131  -0.88325   5.45075
H    -1.91973  -1.33612   5.03507
O    -3.52051   1.58519   6.56993
H    -3.02244   0.89117   7.01867
O    -5.60596   2.88100   5.12225
H    -5.31239   3.10524   6.01480
O     0.55969   2.70295  -1.39225
O     3.00320  -0.73438  -0.06339
O    -0.66228  -1.51061  -2.60466
Re    0.00000   0.00000   0.00000
H    -2.30913   0.88898   1.23321
H    -2.54227   1.19819  -0.35382
O     0.15950   0.68639   1.49195
