36

Pd    0.00000   0.00000   0.00000
N     1.59685   1.00991  -0.17858
N     1.22288  -1.50525  -0.53840
N     0.96523  -2.80027  -0.74853
N    -1.57968  -1.33898   0.13899
O     1.68798   2.22500   0.06096
C     3.53626  -1.98533  -1.20060
C     3.79763  -3.15093  -0.48472
H     3.21923  -3.37383   0.39843
C     4.80526  -4.00508  -0.89179
H     5.00789  -4.90243  -0.32614
C     5.55309  -3.71391  -2.02061
H     6.33799  -4.38419  -2.33814
C     5.29062  -2.56161  -2.74303
H     5.86705  -2.33450  -3.62761
C     4.29122  -1.69785  -2.33541
H     4.07578  -0.80883  -2.90812
C     2.46454  -1.07232  -0.77021
C     2.67634   0.30278  -0.56453
C     3.99701   1.00344  -0.67600
H     4.06768   1.54613  -1.61901
H     4.82164   0.30057  -0.60515
H     4.06538   1.73938   0.12536
C    -0.19858  -3.30306  -0.57096
H    -0.25519  -4.36379  -0.77916
C    -1.43563  -2.67827  -0.14695
C    -2.82720  -1.13805   0.47265
H    -3.23074  -0.17978   0.74584
N    -3.51907  -2.29566   0.42012
H    -4.49749  -2.41473   0.62958
C    -2.66395  -3.29031   0.03060
C    -3.11598  -4.69312  -0.12803
H    -3.57053  -5.05395   0.79457
H    -2.27827  -5.33656  -0.37696
H    -3.85859  -4.76760  -0.92299
O    -1.01466   1.23033   0.42340
