51

Ni    0.00000   0.00000   0.00000
Cl    0.18975   1.97071  -1.30500
S    -2.56374   2.84981   3.48208
O     2.46332  -0.91831  -0.87795
N    -0.28809   1.86495   2.66682
N     0.51295   1.27320   1.77964
N     1.79404  -0.17621   0.05454
N    -1.47230   3.12646   1.08765
C    -1.30896   2.54914   2.28251
C     1.78945   1.19434   1.95518
C     2.52427   1.89480   3.05634
C     2.49809   0.39137   0.97895
C     3.98244   0.23674   1.05236
C    -1.94631   1.83986   4.85438
H    -2.32144   3.62194   0.88031
H    -0.84100   2.89164   0.31059
H     1.74035  -1.40049  -1.37882
H     3.24090   1.22951   3.53253
H     1.80254   2.24332   3.79186
H     3.06276   2.75712   2.66414
H     4.45688   1.19701   1.23601
H     4.35752  -0.18073   0.12206
H     4.24073  -0.43977   1.86723
H    -2.75110   1.77153   5.57904
H    -1.08052   2.32574   5.29219
H    -1.67688   0.86047   4.47315
N    -0.51315  -1.27342   1.77959
N    -1.79405   0.17625   0.05465
N     0.28801  -1.86488   2.66683
C    -1.78973  -1.19496   1.95485
O    -2.46327   0.91861  -0.87770
C    -2.49819  -0.39147   0.97892
C     1.30899  -2.54893   2.28266
C    -2.52473  -1.89581   3.05570
H    -1.74031   1.40062  -1.37868
C    -3.98243  -0.23643   1.05252
S     2.56361  -2.84970   3.48237
N     1.47237  -3.12641   1.08790
H    -3.24034  -1.23031   3.53314
H    -1.80316  -2.24609   3.79050
H    -3.06455  -2.75703   2.66301
H    -4.45718  -1.19655   1.23654
H    -4.35736   0.18085   0.12203
H    -4.24037   0.44052   1.86723
C     1.94666  -1.83922   4.85450
H     2.32156  -3.62181   0.88061
H     0.84110  -2.89172   0.31080
H     2.75148  -1.77103   5.57914
H     1.08069  -2.32462   5.29244
H     1.67762  -0.85980   4.47310
O    -0.13247  -1.37139  -0.90788
