21

Pt    0.00000   0.00000   0.00000
I     1.93122   0.00002   1.80788
N     1.43130   0.00002  -1.73776
H     2.04044   0.82322  -1.68779
H     2.04045  -0.82318  -1.68779
C     0.69636   0.00002  -2.97998
C     0.69286   0.00002  -5.38636
H     1.23667   0.00002  -6.31747
C     1.38229   0.00002  -4.19033
H     2.46255   0.00002  -4.18357
I    -0.00000  -2.70245  -0.19780
I    -1.93122   0.00002   1.80788
C    -0.69636   0.00002  -2.97998
N    -1.43130   0.00002  -1.73776
H    -2.04044   0.82322  -1.68779
H    -2.04045  -0.82318  -1.68779
C    -1.38229   0.00002  -4.19033
C    -0.69286   0.00002  -5.38636
H    -1.23667   0.00002  -6.31747
H    -2.46255   0.00002  -4.18357
O    -0.00000   1.64560  -0.12044
