35

Pt    0.00000   0.00000   0.00000
N     1.90010  -0.86567  -0.43684
N    -1.50751   1.43774   0.45881
C     1.10064   1.60531   0.05811
C     0.55094   2.78655   0.53362
C     1.33214   3.93086   0.56797
C     2.65109   3.86618   0.14004
C     3.20179   2.68121  -0.32868
C     2.41603   1.54066  -0.37706
C     2.82174   0.19747  -0.92536
C     1.92019  -1.98976  -1.37267
C     2.34728  -1.32611   0.88171
C    -0.86628   2.65620   1.02724
C    -2.59130   1.00569   1.34133
C    -2.05682   1.75165  -0.86415
H     0.92544   4.86527   0.92947
H     3.26162   4.75661   0.17202
H     4.23171   2.65557  -0.65712
H     2.74588   0.23514  -2.01802
H     3.85760  -0.06540  -0.67166
H     1.32899  -2.81449  -0.97803
H     1.48933  -1.68425  -2.32725
H     2.94495  -2.34189  -1.53737
H     2.42045  -0.47745   1.56433
H     1.63403  -2.04851   1.28392
H     3.32992  -1.80884   0.81220
H    -1.47604   3.53911   0.79208
H    -0.84281   2.54891   2.11765
H    -2.18088   0.66869   2.29392
H    -3.29563   1.82567   1.52351
H    -3.13286   0.17708   0.88917
H    -1.27076   2.15805  -1.50352
H    -2.45916   0.84601  -1.32316
H    -2.86429   2.49021  -0.78498
O    -0.93226  -1.36048  -0.04980
