49

Zn    0.00000   0.00000   0.00000
O    -1.33018  -3.05999   0.56598
N    -1.56333   1.57363  -0.19374
N    -2.12070  -0.49052   0.49882
N     1.23150  -1.85975   0.02678
N    -0.12778  -1.42838  -1.71044
C    -2.45518   0.80041   0.44110
C     0.92793  -2.10639  -1.25511
C    -2.07574  -0.46595  -4.68627
H    -1.74314  -0.88458  -5.61390
C    -2.87695  -1.32720   1.17508
C    -2.42628  -2.69561   1.26138
C    -3.63067   1.32149   1.03660
C     2.26558  -2.45115   0.56020
H     2.47571  -2.20273   1.59161
C     1.69256  -2.98136  -2.06612
C    -1.78213   2.85761  -0.27914
H    -1.02195   3.43685  -0.78530
C    -0.46259  -1.52357  -2.97848
C    -4.45000   0.40615   1.73590
H    -5.35315   0.76026   2.21243
C    -4.07170  -0.90197   1.81612
H    -4.66409  -1.61895   2.36050
C    -1.56625  -0.70959  -3.42822
C    -2.88719  -3.77105   1.99103
H    -3.73299  -3.79600   2.64699
C    -1.08378  -4.33860   0.84383
H    -0.23528  -4.79509   0.37103
O    -2.24737   0.01542  -2.51836
C    -3.85193   2.70613   0.91950
H    -4.73266   3.14491   1.36716
C    -2.00981  -4.83689   1.71641
H    -2.05581  -5.83047   2.11252
C     1.30378  -3.09779  -3.42019
H     1.86221  -3.74889  -4.07771
C     0.24572  -2.36735  -3.87591
H    -0.06074  -2.41844  -4.90778
C     2.79419  -3.61790  -1.46528
H     3.40868  -4.28651  -2.05187
C    -2.92732   3.47297   0.25686
H    -3.05565   4.53937   0.15773
C     3.07707  -3.35453  -0.14898
H     3.92035  -3.81334   0.34279
C    -3.11923   0.46288  -4.51398
H    -3.73986   0.88643  -5.27670
C    -3.17091   0.71693  -3.17229
H    -3.80890   1.35830  -2.59499
Cl    0.13094   0.40829   2.24317
O     1.11767   0.73487  -0.96606
