29

Pt    0.00000   0.00000   0.00000
Cl   -0.36631   1.05797   2.05770
N    -1.88139   2.07820  -0.89894
N     0.21011  -2.77287   0.96876
O    -1.99059   0.88134  -0.61397
O    -0.73293  -2.01856   0.70955
O    -2.83151   2.80707  -1.03321
O     0.06939  -3.95591   1.14988
C     0.52321   1.74031  -0.84229
C     1.78185   2.18670  -1.20621
C     1.94659   3.44266  -1.77435
C     0.85946   4.27907  -1.99138
C    -0.40875   3.84062  -1.67785
C    -0.56790   2.57127  -1.12374
C     1.65299  -0.82889   0.76986
C     2.87427  -0.23840   1.04508
C     3.91468  -0.98753   1.57752
C     3.75858  -2.34102   1.84659
C     2.53951  -2.94251   1.62119
C     1.49427  -2.17957   1.10257
H     2.64326   1.55052  -1.07454
H     2.93699   3.76920  -2.05296
H     1.00331   5.25697  -2.42270
H    -1.28765   4.43997  -1.86263
H     3.01904   0.81666   0.87227
H     4.85773  -0.50578   1.78687
H     4.57918  -2.91324   2.24917
H     2.35937  -3.98253   1.84878
O     0.26675  -0.74195  -1.44943
