57

C     1.07268  -0.32036   1.51006
C     1.92059  -1.36938   1.16064
C     2.87186  -1.91824   1.99918
C     3.01954  -1.39572   3.27844
C     2.20514  -0.34241   3.66527
C     1.25419   0.17658   2.79336
C    -2.12070  -2.58950  -0.73924
H    -2.85290  -3.27601  -0.30737
H    -2.62702  -1.95981  -1.47435
C    -0.97715  -3.34350  -1.40560
H    -1.34705  -3.94420  -2.23372
H    -0.47401  -4.00214  -0.70041
H    -0.24612  -2.63535  -1.79445
C    -1.08805  -2.63460   1.96767
H    -0.19576  -3.18507   1.65566
H    -0.79593  -2.01238   2.81836
C    -2.17425  -3.61497   2.39033
H    -2.40518  -4.31931   1.59546
H    -3.08730  -3.09783   2.67443
H    -1.83075  -4.18662   3.25085
C    -3.06636  -0.66603   1.13580
H    -3.35196   0.02187   0.33454
H    -3.84856  -1.42492   1.22152
C    -2.88827   0.09432   2.44504
H    -2.00514   0.73075   2.39878
H    -2.76974  -0.58926   3.28270
H    -3.75323   0.72446   2.64093
C     1.83728   1.64005  -2.38450
H     2.56243   0.82146  -2.41260
H     0.99714   1.35313  -3.02190
C     2.46513   2.93050  -2.89610
H     2.79373   2.78802  -3.92390
H     3.33083   3.22027  -2.30566
H     1.74634   3.74598  -2.88336
C     2.59141   2.37334   0.32366
H     2.81150   3.38822  -0.01747
H     2.24928   2.44093   1.35948
C     3.84192   1.50748   0.24526
H     4.28153   1.54496  -0.74867
H     3.60859   0.46970   0.47374
H     4.58728   1.85346   0.95919
C     0.04159   3.16951  -0.67334
H     0.62465   4.09315  -0.68564
H    -0.56113   3.11086  -1.58280
C    -0.86414   3.11041   0.55159
H    -1.61541   3.89659   0.52243
H    -0.29008   3.21197   1.47034
H    -1.37652   2.14229   0.57019
F     1.75430  -1.84033  -0.11093
F     3.64806  -2.93494   1.59601
F     2.33914   0.17777   4.89447
F     0.49004   1.20530   3.22322
I     4.45201  -2.18154   4.59699
Ni    0.00000   0.00000   0.00000
P    -1.50418  -1.47118   0.58581
P     1.17270   1.71436  -0.66741
O    -0.89112   0.23408  -1.36880
