68

Rh    0.00000   0.00000   0.00000
P    -1.89339   0.58370  -1.14663
O    -1.47276   1.22918   2.08201
O    -3.36670   2.52825   2.49397
C    -3.34393   0.05224  -0.17803
C    -4.12816  -1.03653  -0.54445
H    -3.95710  -1.52402  -1.49361
C    -5.12670  -1.50351   0.29221
H    -5.73215  -2.34429  -0.01356
C    -5.34026  -0.89926   1.51825
H    -6.11594  -1.26248   2.17567
C    -4.54462   0.16431   1.91057
H    -4.68894   0.63719   2.86859
C    -3.54530   0.64007   1.07724
C    -2.66048   1.77162   1.54938
H    -2.38299   2.43673   0.70086
C    -0.60566   2.25377   2.55548
H    -0.27684   2.87484   1.71020
H     0.25682   1.73825   2.97864
C    -1.31061   3.11935   3.59728
H    -1.54994   2.51551   4.47434
H    -0.67411   3.95212   3.89258
C    -2.60626   3.62216   2.96657
H    -3.24300   4.13889   3.68693
H    -2.37713   4.30048   2.12916
C    -2.39406   2.23447  -1.76879
C    -3.63247   2.81057  -1.50561
H    -4.34049   2.31074  -0.85795
C    -3.95854   4.03309  -2.06603
H    -4.92047   4.47729  -1.85359
C    -3.05926   4.68488  -2.89333
H    -3.31738   5.64165  -3.32330
C    -1.83098   4.10673  -3.16935
H    -1.12818   4.61004  -3.81663
C    -1.50077   2.88406  -2.61553
H    -0.54092   2.43190  -2.81921
C    -2.05541  -0.22914  -2.77537
C    -3.23168  -0.18188  -3.51724
H    -4.10705   0.30415  -3.10832
C    -3.27425  -0.74802  -4.77779
H    -4.19121  -0.72002  -5.34845
C    -2.14223  -1.34118  -5.31538
H    -2.18153  -1.78039  -6.30137
C    -0.95905  -1.35584  -4.59605
H    -0.07110  -1.79773  -5.02428
C    -0.91590  -0.79784  -3.33084
H     0.00585  -0.78013  -2.75719
C    -0.72949  -1.67365   1.13209
H    -1.73601  -1.43208   1.46527
C    -0.56464  -2.05574  -0.19530
H    -1.46467  -2.16571  -0.80203
C     0.58734  -2.90288  -0.69065
H     0.54438  -2.93397  -1.78154
H     0.44872  -3.93134  -0.33758
C     1.96708  -2.37645  -0.25060
H     2.29379  -2.88708   0.65722
H     2.69735  -2.60485  -1.02956
C     1.97414  -0.88466   0.00726
H     2.56930  -0.29773  -0.69269
C     1.71596  -0.32976   1.25192
H     2.15866   0.64262   1.46955
C     1.35404  -1.12944   2.48072
H     2.24358  -1.66211   2.83764
H     1.05723  -0.43393   3.26804
C     0.20293  -2.12172   2.23602
H    -0.37105  -2.22861   3.15809
H     0.59909  -3.10790   1.98456
O     0.60863   1.47953  -0.40380
