53

Pt    0.00000   0.00000   0.00000
Cl   -2.19241  -0.28838  -0.41846
O     2.68234   2.04593   2.49690
O    -2.78080   2.35317   2.91842
N     1.96768   0.42559   0.35952
N     2.14752   1.80800   0.31454
N    -0.54937   1.08210   1.69082
N    -1.15026   2.26913   1.31309
C     2.71288  -1.80316   0.71857
C     2.95261  -0.34028   0.64508
C     4.33003   0.16492   0.90336
C     2.36072   2.55607   1.43962
C     2.11202   4.01122   1.26975
C     2.12028   4.65868   0.03570
C     1.81911   6.00691  -0.03838
C     1.50271   6.71880   1.10799
C     1.51444   6.08601   2.34020
C     1.82570   4.74216   2.42106
C     0.35224  -0.48004   3.23051
C    -0.21226   0.85880   2.90522
C    -0.29919   1.84651   4.01413
C    -2.27536   2.80209   1.91573
C    -2.76610   4.01174   1.20465
C    -1.89588   4.88493   0.55668
C    -2.39213   6.01430  -0.06765
C    -3.75328   6.27454  -0.05858
C    -4.62052   5.41247   0.59258
C    -4.12901   4.28894   1.23083
H     1.67766   2.22636  -0.48085
H    -1.12900   2.37394   0.30073
H     2.38719   4.13104  -0.86860
H     1.82998   6.50367  -0.99692
H     1.25678   7.76765   1.04069
H     1.28183   6.63997   3.23673
H     1.85256   4.23295   3.37258
H    -0.83090   4.70081   0.56450
H    -1.71359   6.69299  -0.56305
H    -4.13654   7.15343  -0.55521
H    -5.68012   5.61821   0.60446
H    -4.78645   3.60739   1.74837
H     1.67448  -2.03377   0.47402
H     3.35730  -2.30892   0.00169
H     2.95575  -2.17509   1.71276
H     4.36821   0.62032   1.89477
H     4.59315   0.93914   0.18313
H     5.05400  -0.64210   0.85566
H    -0.13080  -0.87234   4.12300
H     0.19402  -1.17066   2.39984
H     1.41812  -0.38264   3.43420
H    -1.28204   1.79675   4.48464
H     0.46473   1.63219   4.75679
H    -0.17349   2.86070   3.63735
O     0.44768  -0.70565  -1.42272
