17

Ru    0.00000   0.00000   0.00000
N     0.21624   0.53430   1.84393
Cl    0.27550   2.21112  -0.67105
Cl   -2.29619   0.33719   0.17006
C     0.34598   0.85746   2.93536
C     0.50522   1.25642   4.29490
H     1.56567   1.37604   4.51610
H     0.08086   0.49432   4.94831
H    -0.00943   2.20323   4.45777
N    -0.21529  -0.53425  -1.84407
Cl    2.29623  -0.33730  -0.17012
C    -0.34510  -0.85752  -2.93545
C    -0.50458  -1.25649  -4.29496
H    -1.56506  -1.37608  -4.51605
H    -0.08029  -0.49441  -4.94843
H     0.01002  -2.20331  -4.45788
O    -0.19467  -1.56790   0.47570
