27

Pd    0.00000   0.00000   0.00000
S     0.40297  -1.09970   2.35756
S    -1.71194   2.23857   0.09235
O     1.05899  -1.73400   3.48799
O    -1.70073   2.06133   1.52398
C     0.95374   0.46380   1.79295
C     0.35534  -1.87145   0.78845
C    -1.34808  -0.86808   2.77950
C    -3.00761   1.19287  -0.61210
C    -2.42242   3.89720  -0.22911
C    -0.16547   2.01568  -0.64185
H     0.62341   1.25904   2.45610
H     2.04255   0.44315   1.69927
H     1.34809  -2.24485   0.52226
H    -0.38198  -2.67559   0.76075
H    -1.71460  -1.79982   3.19728
H    -1.42511  -0.07072   3.51044
H    -1.88233  -0.59920   1.86730
H    -2.79454   0.15476  -0.34764
H    -3.94975   1.51095  -0.17941
H    -3.01151   1.29487  -1.69167
H    -1.71796   4.63922   0.12896
H    -2.57592   4.00541  -1.29552
H    -3.35673   3.98859   0.31062
H    -0.28085   2.21583  -1.70593
H     0.51411   2.72695  -0.17178
O    -0.51133  -0.60763  -1.44631
