50

Rh    0.00000   0.00000   0.00000
Cl   -2.24145  -0.50872  -0.00483
Cl    2.25076   0.59284  -0.17119
O     0.21738  -0.28375  -2.13585
O    -0.73985   2.04355  -0.21956
H    -1.65409   1.89895   0.09260
N     0.55741  -1.83842   0.18434
N     1.71360  -3.67883  -0.20790
H     2.33660  -4.32348  -0.66343
N     1.85997  -0.30770  -3.64110
H     1.36435   0.45152  -4.09502
C     0.21883  -2.75838   1.14806
C    -0.68481  -2.70729   2.20489
H    -1.25863  -1.81316   2.38573
C    -0.82203  -3.82134   3.00913
C    -1.78977  -3.78162   4.15078
H    -2.54407  -4.56038   4.04526
H    -2.28735  -2.81753   4.18742
H    -1.27460  -3.94247   5.09680
C    -0.06696  -4.99232   2.76845
C    -0.23304  -6.18221   3.66153
H     0.41502  -6.99602   3.34706
H    -1.26415  -6.53242   3.64446
H     0.00948  -5.92258   4.69095
C     0.82162  -5.05316   1.70999
H     1.39402  -5.94763   1.51476
C     0.95447  -3.93419   0.90445
C     1.44339  -2.41001  -0.62185
C     2.02992  -1.83247  -1.81166
C     3.20295  -2.29771  -2.34074
H     3.76425  -3.06826  -1.83270
C     3.75146  -1.76193  -3.53576
C     4.96009  -2.20648  -4.09044
H     5.50362  -2.99101  -3.58473
C     5.45790  -1.65869  -5.25313
C     6.75164  -2.12302  -5.84591
H     7.48580  -1.31871  -5.81982
H     6.61181  -2.41066  -6.88661
H     7.15032  -2.97231  -5.29810
C     4.73290  -0.63946  -5.88351
H     5.12013  -0.20583  -6.79337
C     3.54274  -0.18166  -5.36467
H     2.99547   0.60713  -5.85919
C     3.04215  -0.73575  -4.18847
C     1.30898  -0.76022  -2.48365
C    -0.79109   2.62457  -1.51144
H    -1.31794   1.98133  -2.22258
H     0.23931   2.76511  -1.83878
H    -1.28792   3.59800  -1.45452
O    -0.03460   0.34569   1.61301
