45

Pt    0.00000   0.00000   0.00000
N    -1.23645  -0.59415   1.81238
N     0.85973   1.08027   1.75178
C    -2.16515  -1.54169   1.81030
C    -2.66107  -2.06795   3.00252
C    -2.17454  -1.59996   4.21085
C    -1.19005  -0.62773   4.20136
C    -0.73683  -0.15489   2.97210
C    -2.62251  -2.03788   0.48331
C     0.35246   0.79966   2.87960
C     1.99725   1.95988   1.66084
C     3.21782   1.11291   1.29779
C     1.65783   3.02779   0.64088
C     0.85292   4.08841   1.04181
C     0.48367   5.07371   0.14525
C     0.91679   5.01047  -1.16833
C     1.71914   3.95895  -1.57425
C     2.08693   2.96949  -0.67738
C    -1.24864   1.58915  -0.45455
C    -0.28496  -0.85313  -1.87954
C     0.85250  -0.00124  -1.90196
H    -3.41582  -2.83825   2.97419
H    -2.54805  -1.99428   5.14404
H    -0.76548  -0.24906   5.11816
H    -3.57003  -2.56467   0.55576
H    -1.86651  -2.72108   0.09412
H    -2.70507  -1.20591  -0.21444
H     0.73911   1.21440   3.81525
H     2.17567   2.44827   2.63569
H     4.05259   1.75058   1.01914
H     2.97103   0.44170   0.47732
H     3.50443   0.50070   2.15011
H     0.51087   4.14137   2.06676
H    -0.14311   5.89089   0.47126
H     0.62898   5.77814  -1.87146
H     2.06054   3.90547  -2.59793
H     2.71439   2.16013  -1.01163
H    -1.53857   2.08225   0.47628
H    -2.16076   1.25733  -0.95398
H    -0.77459   2.33545  -1.09075
H    -1.17687  -0.54831  -2.42124
H    -0.12011  -1.92764  -1.85423
H     1.83761  -0.46257  -1.88931
H     0.79763   0.93453  -2.45100
O     0.89983  -1.30219   0.46593
