66

Ti    0.00000   0.00000   0.00000
Cl    0.44241   0.27891   2.21523
Cl   -0.05694  -0.03195  -2.28365
O    -1.35813   0.99429   0.07858
O     1.61278  -1.44146  -0.09863
N     1.12851   1.97877  -0.29992
C    -1.87135   2.17794  -0.08111
C    -0.97806   3.24381  -0.35225
C    -1.49240   4.53496  -0.52990
H    -0.81456   5.35081  -0.73675
C    -2.84390   4.76055  -0.44068
H    -3.23935   5.75542  -0.57667
C    -3.71405   3.70634  -0.17476
H    -4.76748   3.92410  -0.11416
C    -3.26690   2.41098   0.00898
C    -4.19801   1.23961   0.28536
C    -4.07117   0.22598  -0.86276
H    -4.35236   0.68930  -1.80724
H    -4.72771  -0.62198  -0.68134
H    -3.05158  -0.15063  -0.95539
C    -3.81281   0.58506   1.62147
H    -3.87956   1.31144   2.43007
H    -2.79748   0.18675   1.59838
H    -4.49034  -0.23822   1.83662
C    -5.66494   1.67276   0.37731
H    -5.81533   2.38467   1.18583
H    -6.28088   0.79973   0.58052
H    -6.00640   2.11175  -0.55738
C     0.44712   3.05466  -0.43961
H     0.95931   3.99614  -0.64681
C     2.59335   2.04786  -0.42119
C     3.18566   1.36227   0.81433
H     2.88836   0.31832   0.85410
H     2.82553   1.85165   1.71784
H     4.27110   1.42225   0.78851
C     3.18727   3.46142  -0.49670
H     2.88926   3.98630  -1.40200
H     4.27056   3.37232  -0.51132
H     2.90977   4.04930   0.37629
C     2.95664   1.27487  -1.71659
H     2.50647   0.28253  -1.65323
H     2.49451   1.79429  -2.56012
C     4.43374   1.13917  -1.94556
C     5.13920   0.07945  -1.38695
H     4.61212  -0.65427  -0.79571
C     6.50222  -0.04856  -1.58431
H     7.03551  -0.87758  -1.14186
C     7.18303   0.88155  -2.35131
H     8.24692   0.78313  -2.50699
C     6.48933   1.93250  -2.92580
H     7.01133   2.65555  -3.53522
C     5.12591   2.05833  -2.72520
H     4.59196   2.87582  -3.18748
C     1.92728  -2.24326   1.05156
H     1.06577  -2.88681   1.28216
H     2.12232  -1.58579   1.90155
C     3.13519  -3.08087   0.62524
H     4.06222  -2.54234   0.82447
H     3.16901  -4.02600   1.16094
C     2.91724  -3.26357  -0.88521
H     2.71050  -4.29898  -1.14524
H     3.78808  -2.93870  -1.45337
C     1.69924  -2.37657  -1.18692
H     1.78930  -1.82122  -2.12284
H     0.77564  -2.97290  -1.21189
O    -0.88025  -1.38190   0.19500
