28

Ni    0.00000   0.00000   0.00000
S    -1.43697   0.98492  -2.23853
Cl   -0.63176   1.32870   1.44446
O     0.57165  -1.18735  -1.54959
O     1.99610  -0.35504   1.11813
N     1.31985   1.57146  -0.81119
H     0.83981   2.32443  -0.30775
N     0.23823  -2.53125  -3.30214
H     0.80654  -3.24231  -2.86799
H    -0.33705  -2.79904  -4.08109
N     3.47033   1.09829   1.99013
H     3.41072   0.63344   2.88277
H     3.89309   2.00874   1.96167
C    -0.01891  -1.41748  -2.58502
C    -1.03345  -0.48689  -3.23296
H    -1.98116  -1.01703  -3.33736
H    -0.68753  -0.16941  -4.21761
C    -0.12933   2.16647  -2.72293
H    -0.46866   3.10104  -2.27466
H    -0.14557   2.26769  -3.80850
C     1.27681   1.83004  -2.24356
H     1.93205   2.67648  -2.51549
H     1.64932   0.93957  -2.76325
C     2.67901   1.45231  -0.29645
H     3.16567   2.42918  -0.16536
H     3.26665   0.85952  -1.00678
C     2.65886   0.65435   1.01040
O    -1.11963  -1.12612   0.44807
