33

Pt    0.00000   0.00000   0.00000
Cl    0.66075  -1.67609   1.30936
N    -0.49049   1.21478   1.52293
C    -0.44383   0.95365   2.82707
H    -0.16704  -0.05799   3.09483
C    -0.72245   1.91249   3.78196
H    -0.67042   1.65795   4.82773
C    -1.06595   3.20042   3.37560
H    -1.28583   3.96572   4.10362
C    -1.11843   3.47877   2.02651
H    -1.37789   4.46047   1.66275
C    -0.82475   2.46418   1.10932
C    -0.87422   2.61937  -0.31022
H    -1.17661   3.56120  -0.75735
N    -0.60475   1.57495  -1.03856
C    -0.65851   1.65205  -2.43112
C    -0.04308   2.67650  -3.11452
H     0.51160   3.43273  -2.57607
C    -0.06141   2.71279  -4.52083
C     0.58633   3.73411  -5.24812
H     1.10906   4.50807  -4.70447
C     0.55513   3.74266  -6.61431
H     1.05494   4.52542  -7.16555
C    -0.12273   2.73251  -7.31475
H    -0.13360   2.75385  -8.39442
C    -0.76042   1.72974  -6.63778
H    -1.28094   0.94892  -7.17290
C    -0.74770   1.69061  -5.22938
C    -1.38931   0.66624  -4.49893
H    -1.91266  -0.10739  -5.04043
C    -1.34390   0.63696  -3.13735
H    -1.83190  -0.14443  -2.57394
O     0.49170  -0.88947  -1.29984
