57

Ir    0.00000   0.00000   0.00000
N    -0.50106   1.52944   1.22038
C    -1.04125  -0.95515   1.45314
C    -1.35117  -2.28608   1.52311
H    -1.04858  -2.96522   0.73955
C    -2.08541  -2.82202   2.60500
C    -2.38421  -4.19779   2.68715
H    -2.03738  -4.85063   1.89887
C    -3.10055  -4.69963   3.73746
H    -3.32552  -5.75507   3.78886
C    -3.55423  -3.84989   4.76029
H    -4.11963  -4.26488   5.58179
C    -3.28383  -2.51241   4.71262
H    -3.63063  -1.85182   5.49462
C    -2.54553  -1.96106   3.64130
C    -2.26000  -0.59084   3.55782
H    -2.62783   0.07853   4.32327
C    -1.52469  -0.09863   2.49769
C    -1.19011   1.27296   2.29069
H    -1.51613   2.06604   2.95696
C    -0.09887   2.83739   0.92290
C     0.57078   3.61024   1.87003
H     0.77676   3.19378   2.84598
C     0.99039   4.88727   1.54532
H     1.51861   5.47855   2.27885
C     0.73605   5.40681   0.28682
H     1.06425   6.40499   0.03894
C     0.06166   4.64217  -0.65266
H    -0.14380   5.04847  -1.63183
C    -0.34933   3.36004  -0.34476
H    -0.88319   2.75413  -1.06145
C     2.21171  -0.15939   0.11396
C     1.69424  -1.44497  -0.24568
C     1.00373  -1.28691  -1.48116
C     1.27168   0.05718  -1.97212
C     2.01724   0.73477  -1.00962
C     3.13094   0.10900   1.26364
H     2.88710  -0.52647   2.11223
H     3.07046   1.14885   1.58013
H     4.16332  -0.09398   0.97090
C     1.96567  -2.71935   0.49101
H     3.00827  -3.00648   0.34272
H     1.33648  -3.52554   0.12495
H     1.79233  -2.60821   1.55967
C     0.42411  -2.37060  -2.33706
H     1.14381  -2.66886  -3.10223
H    -0.47763  -2.01966  -2.83482
H     0.16825  -3.24635  -1.74573
C     0.84489   0.54026  -3.31841
H     1.30207  -0.07026  -4.09831
H     1.13302   1.57696  -3.47454
H    -0.23771   0.46259  -3.42111
C     2.63180   2.09221  -1.12299
H     3.67296   2.00023  -1.44026
H     2.61794   2.61570  -0.16825
H     2.10573   2.70561  -1.85070
O    -1.44152   0.18086  -0.78219
