58

C     0.98528   2.58602   1.26299
H     0.51951   2.58307   2.25399
H     1.46721   3.56390   1.11441
C     2.04115   1.47079   1.23532
H     2.78997   1.64800   2.02106
H     2.55081   1.45950   0.26603
C     0.36239   2.86875  -1.04174
H     0.50764   3.95734  -0.99570
H    -0.40521   2.64922  -1.78221
H     1.29345   2.40537  -1.36914
C    -1.32440   2.91869   0.64009
H    -1.65269   2.50212   1.59298
H    -2.06919   2.67383  -0.11646
H    -1.26031   4.01139   0.73322
C     1.62417  -0.49168   2.46434
H     2.44078  -0.18342   3.12295
C     0.89355  -1.68011   2.85505
C    -0.48801  -1.75174   2.66022
H    -1.00301  -0.91443   2.19472
C    -1.20303  -2.85416   3.07828
H    -2.26938  -2.89683   2.91957
C    -0.54870  -3.90620   3.70114
H    -1.10253  -4.77738   4.01726
C     0.81369  -3.83811   3.92375
H     1.32552  -4.65922   4.40429
C     1.55117  -2.73372   3.51287
C     3.00132  -2.68920   3.74959
C     3.51641  -2.96498   5.01364
H     2.84107  -3.21591   5.81896
C     4.87530  -2.89048   5.25126
H     5.25585  -3.09533   6.24195
C     5.76103  -2.55247   4.23499
C     5.24745  -2.30194   2.96773
H     5.92248  -2.05355   2.16079
C     3.88861  -2.36635   2.72577
H     3.50314  -2.19372   1.73176
C     7.23010  -2.43785   4.50452
H     7.47926  -1.41048   4.77423
H     7.80927  -2.70258   3.62292
H     7.52562  -3.08201   5.32928
C     0.39559  -1.95762  -0.23516
C     1.71165  -2.37770  -0.39942
H     2.51705  -1.65311  -0.47851
C     2.02285  -3.72456  -0.47588
H     3.05381  -4.03033  -0.59811
C     1.02987  -4.69125  -0.39416
C    -0.28502  -4.27167  -0.26030
H    -1.07818  -5.00532  -0.21513
C    -0.59979  -2.92597  -0.18678
H    -1.63894  -2.63810  -0.09397
C     1.38212  -6.14836  -0.44866
H     2.01348  -6.35913  -1.31056
H     0.48629  -6.76081  -0.51496
H     1.93228  -6.43730   0.44741
N    -0.04519   2.33517   0.25510
N     1.35715   0.21379   1.42764
Pt    0.00000   0.00000   0.00000
O    -1.17795   0.02272  -1.15517
