55

Br    1.66367  -0.51100  -1.38486
Ni    0.00000   0.00000   0.00000
N    -1.66319   0.82435   0.57450
N     0.72979   1.69808   0.59957
C    -2.92679   0.25470   0.33713
C    -3.36846   0.13975  -0.98501
C    -2.49568   0.62685  -2.10150
H    -1.46787   0.24829  -1.97073
H    -2.86289   0.27685  -3.06198
H    -2.44955   1.71751  -2.12163
C    -4.59888  -0.44676  -1.22395
H    -4.94487  -0.53737  -2.24327
C    -5.38195  -0.93424  -0.18712
C    -6.69778  -1.59292  -0.46368
H    -7.10955  -1.25934  -1.41304
H    -6.56343  -2.67367  -0.51307
H    -7.41246  -1.38004   0.32846
C    -4.90094  -0.84338   1.11191
H    -5.48664  -1.24983   1.92357
C    -3.67780  -0.26116   1.39673
C    -3.13224  -0.22657   2.79171
H    -2.12836  -0.65199   2.80413
H    -3.07436   0.79298   3.17443
H    -3.76101  -0.80852   3.45918
C    -1.52519   2.04051   0.98102
C    -0.14829   2.48242   1.12610
C     2.10939   1.95714   0.68160
C     2.71076   2.85458  -0.20474
C     1.89097   3.53443  -1.25871
H     2.53486   4.05131  -1.96444
H     1.30496   2.79376  -1.80388
H     1.20265   4.26082  -0.82479
C     4.07800   3.05193  -0.11276
H     4.55225   3.73974  -0.79762
C     4.85221   2.37588   0.81986
C     4.23448   1.46306   1.66356
H     4.82795   0.90638   2.37411
C     2.87152   1.23238   1.60395
C     2.20390   0.21560   2.47912
H     1.55011  -0.43429   1.87336
H     2.93901  -0.41367   2.97263
H     1.58531   0.69358   3.24132
C     6.33313   2.58882   0.87662
H     6.71851   2.38661   1.87314
H     6.82711   1.91177   0.17939
H     6.59069   3.60742   0.59534
C     0.17333   3.74138   1.86364
H    -0.26228   3.71085   2.86206
H     1.25013   3.87085   1.94968
H    -0.24673   4.60277   1.34470
C    -2.65775   2.97336   1.26317
H    -2.54590   3.88514   0.67693
H    -3.60909   2.50681   1.01631
H    -2.66384   3.25469   2.31609
O    -0.51703  -1.56215   0.12197
