51

Au    0.00000   0.00000   0.00000
N    -1.13984  -2.51044   1.19650
N    -2.14605  -1.61100  -2.52226
N    -0.35785  -3.13141  -5.21780
N    -2.63654  -1.41723   0.12709
C    -1.34941  -1.37388   0.51544
C    -1.03328  -0.55887  -4.35107
H    -0.44477  -0.68141  -5.24493
C    -1.43329  -1.69188  -3.64303
C     1.66225  -2.87915   3.56337
H     1.92374  -2.58867   4.57040
C    -1.06537  -3.04035  -4.09408
C     0.43046  -2.50430   3.05107
C     0.11483  -2.88453   1.74839
C     2.56931  -3.60911   2.80726
C    -2.47664  -0.41764  -2.05737
C    -3.22374  -2.57627   0.54911
H    -4.24522  -2.81530   0.33664
C    -2.27957  -3.26781   1.23187
H    -2.32197  -4.21425   1.73066
C    -0.30673  -5.50277  -4.97273
H     0.01955  -6.45647  -5.35742
C    -1.44086  -4.16551  -3.35768
H    -2.02478  -4.03422  -2.46106
C     2.22640  -3.96798   1.51103
H     2.92881  -4.52875   0.91192
C     3.90787  -3.97269   3.37050
H     4.61251  -3.16053   3.19058
H     4.29977  -4.86961   2.89732
H     3.84803  -4.13342   4.44431
C     0.00580  -4.32583  -5.63893
H     0.57748  -4.33929  -6.55817
C    -1.05094  -5.41369  -3.80596
H    -1.32227  -6.30526  -3.25795
C    -3.22809  -0.43332  -0.74165
H    -3.17876   0.55420  -0.27472
H    -4.27541  -0.70083  -0.90833
C    -2.13622   0.76627  -2.69975
H    -2.42043   1.71986  -2.28399
C    -0.53788  -1.69240   3.85529
H    -0.16226  -1.53521   4.86235
H    -1.50700  -2.18735   3.91683
H    -0.68663  -0.72066   3.38390
C    -1.39895   0.68538  -3.87112
H    -1.09848   1.58437  -4.38735
C     1.00465  -3.61341   0.96106
C     0.63980  -3.98432  -0.44337
H    -0.24771  -4.61702  -0.45945
H     1.45453  -4.51862  -0.92387
H     0.42083  -3.08913  -1.02637
O     1.07641   1.13338  -0.52849
