69

Ni    0.00000   0.00000   0.00000
C     1.13812   0.05237  -1.55826
N     1.02287   0.93267  -2.56904
N     2.28391  -0.62317  -1.78419
C     2.08344   0.81097  -3.42379
H     2.19698   1.41304  -4.30100
C     2.88063  -0.16304  -2.92746
H     3.80765  -0.54960  -3.29547
C    -0.03842   1.91703  -2.66659
H    -0.66256   1.77484  -1.77025
C     0.54914   3.32442  -2.63407
H     1.17090   3.51047  -3.50713
H     1.14999   3.45463  -1.73644
H    -0.25380   4.05617  -2.61869
C    -0.88886   1.66315  -3.90633
H    -0.28916   1.73789  -4.81150
H    -1.68892   2.39617  -3.95896
H    -1.33582   0.67269  -3.85593
C     2.84942  -1.57676  -0.85081
H     2.01600  -1.88113  -0.19773
C     3.91758  -0.88671  -0.00300
H     4.29911  -1.57250   0.74844
H     3.49282  -0.02023   0.49957
H     4.74456  -0.55418  -0.62697
C     3.39540  -2.80542  -1.56873
H     4.28413  -2.55903  -2.14529
H     2.64355  -3.22416  -2.23378
H     3.66493  -3.56224  -0.83684
C    -1.04118  -0.28486   1.61570
N    -2.13114   0.43082   1.95212
N    -0.70914  -0.98678   2.72099
C    -2.48312   0.17819   3.24941
H    -3.32313   0.63951   3.72516
C    -1.58590  -0.70911   3.73580
H    -1.50818  -1.14943   4.70765
C    -2.76167   1.40599   1.08280
H    -2.18487   1.39205   0.14555
C    -2.65835   2.79742   1.70077
H    -3.22682   2.85854   2.62622
H    -3.04687   3.53727   1.00629
H    -1.61714   3.03400   1.91008
C    -4.20086   1.00350   0.78086
H    -4.22272   0.02751   0.30125
H    -4.64933   1.72634   0.10520
H    -4.79451   0.96515   1.69214
C     0.49618  -1.78306   2.84124
H     0.85411  -1.93447   1.81058
C     1.55146  -1.00098   3.62176
H     1.73717  -0.04242   3.14244
H     2.48240  -1.56038   3.65299
H     1.21714  -0.81914   4.64092
C     0.21016  -3.13696   3.48302
H     1.09507  -3.76411   3.41526
H    -0.60856  -3.64309   2.97687
H    -0.04547  -3.02287   4.53398
O    -2.00408  -0.55354  -1.49751
C    -1.07450  -1.09696  -0.93958
C    -0.77191  -2.54577  -1.07070
C    -0.19056  -3.01711  -2.24646
H     0.00388  -2.32858  -3.05781
C     0.13088  -4.35564  -2.37287
H     0.57518  -4.71660  -3.29007
C    -0.12686  -5.23734  -1.33559
H     0.12697  -6.28210  -1.43764
C    -0.72325  -4.77659  -0.17283
H    -0.94272  -5.46570   0.63056
C    -1.04525  -3.43934  -0.03903
H    -1.52851  -3.07734   0.85747
O     0.77818   1.28595   0.68064
