51

Ru    0.00000   0.00000   0.00000
S     0.80298   1.86686  -1.32336
N     1.62222   0.07363   1.21034
N     1.52649   0.73024   2.37860
H     0.64351   1.21083   2.57549
C     2.82461  -0.45740   1.13289
H     3.12623  -1.04444   0.28616
C     3.56530  -0.13904   2.29393
C     4.85660  -0.40734   2.75813
H     5.53867  -1.00011   2.16825
C     5.21980   0.10455   3.97971
H     6.20998  -0.08547   4.36628
C     4.33357   0.87444   4.74787
H     4.66809   1.25446   5.70161
C     3.05739   1.15476   4.31834
H     2.37349   1.74590   4.90677
C     2.67814   0.63915   3.08136
C     1.26811   3.17647  -0.15568
H     2.06980   2.83011   0.49114
H     0.38337   3.40282   0.43350
H     1.58054   4.04908  -0.72265
C     2.45784   1.44325  -1.93537
H     2.82554   2.27138  -2.53485
H     2.35137   0.54963  -2.54388
H     3.12115   1.24377  -1.09821
Cl    1.13548  -1.54384  -1.45305
S    -0.80351  -1.86535   1.32442
N    -1.62244  -0.07134  -1.21012
N    -1.52699  -0.72845  -2.37809
H    -0.64406  -1.20906  -2.57509
C    -2.82502   0.45925  -1.13233
H    -3.12665   1.04607  -0.28545
C    -3.56584   0.14074  -2.29328
C    -4.85722   0.40882  -2.75736
H    -5.53929   1.00158  -2.16748
C    -5.22044  -0.10309  -3.97893
H    -6.21061   0.08694  -4.36550
C    -4.33421  -0.87295  -4.74712
H    -4.66873  -1.25294  -5.70089
C    -3.05803  -1.15326  -4.31761
H    -2.37411  -1.74434  -4.90609
C    -2.67871  -0.63749  -3.08072
C    -1.26848  -3.17468   0.15634
H    -2.07016  -2.82837  -0.49053
H    -0.38365  -3.40087  -0.43278
H    -1.58092  -4.04737   0.72318
C    -2.45844  -1.44162   1.93614
H    -2.82618  -2.26968   2.53570
H    -2.35194  -0.54790   2.54453
H    -3.12171  -1.24225   1.09892
O    -0.78012   1.05765   0.99764
