26

C     1.17766  -6.03766   4.69737
H     1.11863  -7.10627   4.85692
C     1.69969  -5.19375   5.68694
H     2.04873  -5.60547   6.62044
C     1.75297  -3.84488   5.43707
H     2.14535  -3.15198   6.16714
C     1.28521  -3.35988   4.20285
C     1.29904  -1.98063   3.85860
H     1.68407  -1.27419   4.57896
C     0.84138  -1.55176   2.65685
H     0.85629  -0.49872   2.41202
C     0.33499  -2.46915   1.69993
C     0.29430  -3.85038   2.00421
C     0.78030  -4.30275   3.27880
C    -0.21786  -4.73784   1.05227
H    -0.24379  -5.78892   1.29367
C    -0.67004  -4.24675  -0.15132
H    -1.07603  -4.89204  -0.91248
C    -0.59513  -2.87881  -0.38503
H    -0.94126  -2.45882  -1.31867
N     0.73472  -5.61452   3.54073
N    -0.10987  -2.03200   0.50292
Au    0.00000   0.00000   0.00000
Br   -2.35300   0.19380   0.67819
Br    2.35167  -0.38097  -0.60814
O     0.08488   1.59682  -0.40677
