70

Cu    0.00000   0.00000   0.00000
P     1.69676  -1.31075   0.68039
C     3.21026  -0.35313   1.00564
C     3.06121   0.81839   1.74521
C     4.15708   1.61810   2.00765
C     5.40467   1.25650   1.52602
C     5.55441   0.09611   0.78365
C     4.46246  -0.71021   0.51841
C     2.19874  -2.38426  -0.70143
C     1.93368  -1.89888  -1.97945
C     2.27285  -2.64109  -3.09428
C     2.87418  -3.87911  -2.93781
C     3.14255  -4.36640  -1.66844
C     2.81032  -3.62418  -0.54959
C     1.61231  -2.44518   2.10170
C     0.82708  -3.59122   1.98808
C     0.64471  -4.42470   3.07317
C     1.22730  -4.11229   4.29118
C     1.99198  -2.96418   4.41661
C     2.18215  -2.12863   3.33081
H     2.08035   1.10643   2.10020
H     4.03361   2.52895   2.57357
H     6.26112   1.88463   1.72108
H     6.52693  -0.18061   0.40285
H     4.58175  -1.60947  -0.07001
H     1.45605  -0.93185  -2.09244
H     2.06149  -2.25958  -4.08211
H     3.13488  -4.46571  -3.80628
H     3.61659  -5.33007  -1.54848
H     3.02326  -4.00527   0.43999
H     0.36176  -3.83020   1.04077
H     0.04165  -5.31511   2.97025
H     1.08271  -4.76183   5.14161
H     2.44329  -2.71664   5.36632
H     2.77980  -1.23338   3.43320
P    -1.70464  -1.30795  -0.66321
C    -3.21922  -0.35176  -0.98796
C    -2.20487  -2.38245   0.71860
C    -1.61912  -2.44191  -2.08473
C    -3.07148   0.81998  -1.72744
C    -4.47113  -0.71062  -0.50125
C    -1.93741  -1.89842   1.99661
C    -2.81734  -3.62190   0.56655
C    -0.83375  -3.58783  -1.97097
C    -2.18847  -2.12513  -3.31401
C    -4.16845   1.61805  -1.99047
H    -2.09094   1.10960  -2.08190
C    -5.56412   0.09414  -0.76696
H    -4.58945  -1.61015   0.08695
C    -2.27533  -2.64142   3.11131
H    -1.45879  -0.93186   2.10959
C    -3.14828  -4.36493   1.68524
H    -3.03196  -4.00198  -0.42306
C    -0.65066  -4.42099  -3.05619
H    -0.36885  -3.82694  -1.02349
C    -1.99765  -2.96043  -4.39990
H    -2.78627  -1.23000  -3.41643
C    -5.41575   1.25468  -1.50941
H    -4.04595   2.52901  -2.55642
H    -6.53643  -0.18401  -0.38666
C    -2.87772  -3.87889   2.95464
H    -2.06206  -2.26105   4.09917
H    -3.62303  -5.32823   1.56517
C    -1.23281  -4.10841  -4.27437
H    -0.04716  -5.31110  -2.95333
H    -2.44838  -2.71260  -5.34982
H    -6.27305   1.88148  -1.70498
H    -3.13742  -4.46611   3.82299
H    -1.08735  -4.75749  -5.12501
O     0.01384   1.64987  -0.01534
