44

Zn    0.00000   0.00000   0.00000
O     1.53618  -0.91549   0.88581
O    -0.47188   0.38475   1.89166
O    -1.39735  -3.35108  -6.01611
H    -1.95113  -3.92203  -5.47164
O    -4.50912   2.06398  -4.51124
H    -3.67302   2.53464  -4.61012
N    -0.06209  -1.38973  -1.60552
N    -2.04192   0.05660  -0.65576
C     0.92198  -2.19235  -1.96922
H     1.70646  -2.32484  -1.23922
C     0.95386  -2.82331  -3.20060
H     1.77696  -3.46866  -3.46431
C    -0.09492  -2.60805  -4.08868
C    -1.12096  -1.75752  -3.69894
H    -1.94232  -1.58066  -4.37534
C    -1.06765  -1.15066  -2.44799
C    -2.08657  -0.20862  -1.96262
C    -3.00525   0.41320  -2.80000
H    -3.01926   0.22190  -3.86135
C    -3.89762   1.33364  -2.26582
C    -3.85673   1.56960  -0.89633
H    -4.53341   2.27295  -0.43703
C    -2.90765   0.90876  -0.13599
H    -2.81281   1.07645   0.92659
C    -0.11825  -3.26487  -5.44599
H     0.46975  -2.65379  -6.13994
H     0.35721  -4.25459  -5.38419
C    -4.87288   2.06034  -3.15723
H    -5.84234   1.55068  -3.11495
H    -5.01496   3.08381  -2.78104
C     1.56279  -0.73062   2.14385
C     0.41890   0.00569   2.71617
C     0.24143   0.31337   4.07745
H    -0.67501   0.86241   4.26135
C     1.02500   0.04450   5.17861
H     0.63480   0.41124   6.12113
C     2.23813  -0.62231   5.25584
H     2.67517  -0.71016   6.24203
C     2.95692  -1.18587   4.21299
H     3.89071  -1.65944   4.49378
C     2.65923  -1.23250   2.86825
H     3.38257  -1.73021   2.23241
O     0.37579   1.33171  -0.89880
