38

Pt    0.00000   0.00000   0.00000
I    -1.25166   0.89826  -2.16531
O    -3.69103   4.81340   0.26426
H    -3.94541   4.35825  -0.54829
N    -1.31150  -1.87400  -0.07354
N    -1.93722   0.41553   1.33400
H    -1.62067  -0.04732   2.18971
C     1.57383  -0.59692  -1.20710
H     1.98002   0.23870  -1.77665
H     1.16591  -1.33491  -1.90342
H     2.36923  -1.04581  -0.61325
C     1.01437   1.77962   0.26628
H     0.45670   2.32123   1.03774
H     1.04107   2.38194  -0.64090
H     2.03592   1.61605   0.60975
C    -0.87168  -3.07191  -0.43689
H     0.16110  -3.13005  -0.75433
C    -1.66830  -4.20124  -0.40806
H    -1.26813  -5.15403  -0.71352
C    -2.97882  -4.07343   0.02522
H    -3.63403  -4.93011   0.06473
C    -3.43067  -2.82652   0.41829
H    -4.44062  -2.68651   0.77105
C    -2.56530  -1.74104   0.35743
C    -3.02930  -0.36467   0.75664
H    -3.39328   0.13660  -0.14742
H    -3.87418  -0.44752   1.45544
C    -2.18541   1.78107   1.64359
C    -2.88685   2.61880   0.78540
H    -3.30814   2.25042  -0.13864
C    -3.02577   3.96777   1.08757
C    -2.48222   4.48112   2.26176
H    -2.60553   5.52932   2.47763
C    -1.79331   3.64264   3.11450
H    -1.36559   4.03525   4.02403
C    -1.64282   2.30051   2.81637
H    -1.08926   1.65731   3.48622
O     0.68282  -0.62677   1.36507
