60

Pt    0.00000   0.00000   0.00000
Se    0.37962  -1.28707  -2.14224
N    -2.12390  -0.68522  -0.03014
N    -0.03550  -1.93421   1.12371
C     0.58236   1.82840  -0.82150
C     1.72811   1.16906  -0.25867
H     0.47892   1.85021  -1.90667
H     2.11785   1.53294   0.69340
O    -1.08170   3.50216  -0.44597
O     0.81185   3.55434   0.75620
O     3.86649   0.23270  -0.71915
O     2.46531   0.63243  -2.43093
C    -0.00655   3.02571  -0.15455
C     0.30267   4.63669   1.52151
H    -0.26913   5.31501   0.88516
H     1.16432   5.14022   1.95235
H    -0.34390   4.24709   2.31086
C     2.79535   0.61822  -1.12590
C     3.43101   0.12570  -3.34017
H     4.43694   0.33371  -2.97109
H     3.25281   0.62170  -4.29151
H     3.29768  -0.95288  -3.45089
C    -3.10836  -0.06221  -0.65459
C    -4.43828  -0.49413  -0.49931
H    -5.22322   0.04399  -1.00728
C    -4.72365  -1.58226   0.28130
H    -5.73958  -1.92676   0.40814
C    -3.67533  -2.26878   0.91808
C    -2.37492  -1.76284   0.72920
C    -1.26403  -2.42876   1.33994
C    -1.48986  -3.57131   2.13298
C     0.88031  -3.64562   2.48271
H     1.76149  -4.08996   2.91832
C    -0.36133  -4.18037   2.70743
H    -0.48601  -5.05983   3.32221
C     1.02100  -2.50225   1.67710
C    -2.81661  -4.05006   2.30789
H    -2.96483  -4.92650   2.92109
C    -3.86677  -3.42480   1.72224
H    -4.87403  -3.79081   1.85471
C    -2.76498   1.07784  -1.53853
H    -2.45579   1.94609  -0.95037
H    -3.60943   1.36651  -2.15765
H    -1.91946   0.80923  -2.17476
C     2.34862  -1.88342   1.42996
H     2.50777  -1.72962   0.36194
H     3.15488  -2.49325   1.82620
H     2.38697  -0.90197   1.90621
C    -0.92156  -2.68681  -1.92213
C    -2.19957  -2.54940  -2.44935
H    -2.44747  -1.66745  -3.02266
C    -3.14695  -3.53252  -2.23635
H    -4.14326  -3.41313  -2.63778
C    -2.82216  -4.66731  -1.51092
H    -3.56594  -5.43096  -1.33743
C    -1.53614  -4.82819  -1.02355
H    -1.27114  -5.72214  -0.47682
C    -0.58702  -3.84501  -1.23248
H     0.42035  -3.97100  -0.85940
O    -0.33618   0.65436   1.47692
