34

Br   -1.66392  -1.07994   2.47324
Br    1.91096  -2.13520   1.37974
Fe    0.00000   0.00000   0.00000
Cl    0.85789   1.15558   1.64544
N     1.71063  -0.36834  -0.65117
N    -1.69721   0.65561   0.40794
N     0.06384   1.56890  -1.31385
C     2.06597   0.30457  -1.76219
C     2.60645  -1.16142  -0.07487
C     3.91025  -1.29795  -0.51462
H     4.59201  -1.95278   0.00202
C    -2.41139   0.33621   1.48102
C    -1.34809   1.74880  -1.67882
H    -1.63268   0.93153  -2.34938
H    -1.52996   2.71048  -2.17236
C     4.28944  -0.57038  -1.63133
H     5.29788  -0.63535  -2.00687
C     3.34657   0.23049  -2.27183
H     3.60700   0.78437  -3.15965
C     0.92238   1.05581  -2.39023
H     1.27185   1.85167  -3.05807
H     0.34698   0.32079  -2.96233
C    -2.18131   1.58714  -0.43520
C    -3.36220   2.25207  -0.17341
H    -3.72471   2.99984  -0.86063
C    -4.07863   1.93986   0.97988
H    -4.99853   2.45346   1.20835
C    -3.60428   0.94645   1.82169
H    -4.13377   0.64648   2.71061
C     0.60458   2.83279  -0.82068
H     1.62495   2.68412  -0.47599
H     0.01591   3.17665   0.02620
H     0.59157   3.59390  -1.60962
O    -0.65558  -1.04236  -1.09828
