60

Re    0.00000   0.00000   0.00000
P     2.29644  -0.75764   0.65396
O    -0.48908  -1.60691   0.80424
C    -1.10270  -2.08752   1.83936
C    -1.11710   0.16278   2.92153
H    -1.41218   0.70421   3.82617
C    -1.44975  -1.23474   2.92409
N    -0.49006   0.80277   2.00734
C     2.41779  -2.53697   0.98588
C     1.84611  -3.39619   0.04913
H     1.36368  -2.98155  -0.82751
C     3.05263  -3.05670   2.10954
H     3.51513  -2.39666   2.83030
C     2.84141   0.06825   2.17215
C     3.78449   1.09043   2.14889
H     4.27959   1.33898   1.22112
C    -1.42498  -3.45273   1.91974
H    -1.15268  -4.08569   1.08873
C    -2.11446  -1.78175   4.02784
H    -2.38057  -1.12907   4.84781
C    -2.42889  -3.12027   4.08016
H    -2.94489  -3.52369   4.93754
C    -2.07985  -3.95410   3.02016
H    -2.32598  -5.00473   3.06161
C    -0.22130   2.20932   2.19695
H     0.84523   2.36685   2.01549
H    -0.46067   2.50453   3.22790
C     4.08321   1.78109   3.31044
H     4.81906   2.57104   3.28984
C     2.18680  -0.23768   3.36559
H     1.44317  -1.02452   3.38008
C     2.49052   0.45455   4.52179
H     1.98648   0.20824   5.44498
C     3.09617  -4.42657   2.30090
H     3.58838  -4.82799   3.17475
C     1.89423  -4.76319   0.25096
H     1.44673  -5.42740  -0.47339
Cl   -2.26422   0.28498  -0.50162
C     3.43933   1.46554   4.49561
H     3.67376   2.00806   5.39910
C     2.51270  -5.27965   1.37865
H     2.54458  -6.34730   1.53819
O     0.55349   1.46313  -0.54294
C     3.59930  -0.43569  -0.56593
C     4.78384  -1.16635  -0.54554
H     4.92894  -1.94116   0.19479
C     3.40273   0.55472  -1.52266
H     2.46803   1.10260  -1.53561
C     5.76758  -0.89897  -1.47963
H     6.68667  -1.46621  -1.46813
C     5.57310   0.08927  -2.43198
H     6.34238   0.28874  -3.16317
C     4.39278   0.81486  -2.45312
H     4.23976   1.57848  -3.20039
C    -2.34988   3.06799   1.24127
H    -2.92687   2.51596   1.96567
H    -2.91065   3.63466   0.52014
C    -1.03079   3.03150   1.21941
H    -0.46996   3.56300   0.46656
O     0.25361  -0.76775  -1.43831
