50

Ti    0.00000   0.00000   0.00000
Cl    0.74580  -2.00681  -0.49016
Cl    1.97133   0.92579  -0.15804
O    -0.77869   1.44124   0.61468
N    -0.14873  -0.55848   1.96188
C    -0.32133  -1.92711   2.24905
C     0.68140  -2.69530   2.84716
C     0.41789  -4.03493   3.09896
H     1.19114  -4.64012   3.54960
C    -0.79656  -4.61707   2.77070
C    -1.76067  -3.84014   2.13669
H    -2.69671  -4.29292   1.84357
C    -1.53735  -2.50507   1.85425
C     2.04230  -2.12476   3.12336
H     2.79061  -2.90763   3.02615
H     2.11122  -1.72270   4.13452
H     2.27938  -1.32967   2.41265
C    -1.05098  -6.06781   3.03849
H    -0.39826  -6.44018   3.82371
H    -0.86006  -6.64688   2.13506
H    -2.08618  -6.23249   3.32844
C    -2.55040  -1.67466   1.11599
H    -2.76901  -0.74192   1.64748
H    -3.47723  -2.23049   0.99173
H    -2.16333  -1.42288   0.11172
C     0.11675   0.27337   2.91277
H     0.25015  -0.10623   3.93101
C     0.14493   1.69160   2.74963
C     0.57565   2.52944   3.78992
H     0.96966   2.08862   4.69373
C     0.50988   3.88965   3.63700
H     0.85178   4.54458   4.42330
C    -0.00063   4.44070   2.46022
H    -0.02706   5.51496   2.38214
C    -0.46102   3.66619   1.41233
C    -0.37667   2.25702   1.54980
C    -0.98913   4.25619   0.11200
C    -0.05825   3.83025  -1.03434
H     0.97009   4.11056  -0.81221
H    -0.36201   4.32055  -1.95649
H    -0.09702   2.75111  -1.19408
C    -1.03705   5.78693   0.14957
H    -1.44380   6.15381  -0.78993
H    -0.04234   6.20941   0.26885
H    -1.67849   6.14148   0.95338
C    -2.41050   3.73775  -0.15223
H    -2.80434   4.19348  -1.05754
H    -3.06738   3.99130   0.67811
H    -2.41355   2.65752  -0.28852
O    -0.79491   0.10904  -1.44178
