43

C    -0.09515  -1.08675   2.75531
H    -0.31433  -1.89268   3.47899
C     0.49572   0.08731   3.30559
C     0.79255   0.15971   4.68073
H     0.56029  -0.68595   5.31077
C     1.37114   1.28737   5.19400
H     1.60425   1.35236   6.24542
C     1.67305   2.37002   4.35892
H     2.13467   3.23396   4.80856
C     1.40369   2.36439   3.00652
C     0.79411   1.20093   2.45958
C     1.73550   3.52205   2.07583
C     0.44428   4.03314   1.41611
H    -0.01996   3.26761   0.79258
H     0.67103   4.88857   0.78400
H    -0.27158   4.34279   2.17570
C     2.38562   4.69169   2.82201
H     1.72022   5.09174   3.58371
H     2.60176   5.48894   2.11486
H     3.32355   4.39172   3.28362
C     2.71992   3.03291   1.00059
H     3.62223   2.63889   1.46520
H     2.99634   3.86182   0.35309
H     2.28229   2.25065   0.37753
C    -1.78062  -2.26978  -0.98788
H    -2.65208  -1.68003  -1.30615
H    -1.87896  -2.51103   0.07581
C    -1.58062  -3.49215  -1.87588
H    -2.52437  -3.94568  -2.16829
H    -0.96697  -4.23710  -1.36717
C    -0.81372  -2.88482  -3.04627
H    -0.26608  -3.62064  -3.62966
H    -1.49422  -2.34250  -3.70400
C     0.11835  -1.91650  -2.32647
H     1.03425  -2.41850  -1.98344
H     0.38815  -1.03969  -2.92781
O    -0.38285  -1.29806   1.56973
O     0.49653   1.12189   1.20487
O    -0.60367  -1.46279  -1.16393
Cl   -2.19151   0.56988   0.24206
Cl    0.36818   1.26624  -1.75113
Ti    0.00000   0.00000   0.00000
O     1.47220  -0.74468   0.02425
