60

W     0.00000   0.00000   0.00000
Cl    1.51998   1.74399  -0.58158
P    -0.25873  -0.21948  -2.41561
P    -0.21728   1.29485   2.05678
O     1.08631  -1.20586   0.41683
O    -2.57513  -1.71533   0.58833
C    -1.60042  -1.12634   0.38272
C    -0.11735   1.29729  -3.43006
C    -0.22188   3.11979   1.93223
C    -1.98816  -2.32599  -2.58649
C    -3.16818  -2.97860  -2.88017
C    -4.19846  -2.29232  -3.50674
C    -4.04375  -0.95725  -3.83604
C    -2.85791  -0.29975  -3.55223
C    -1.82197  -0.98597  -2.93339
C     0.82760  -1.73108  -4.51460
C     1.80702  -2.51284  -5.09768
C     2.94346  -2.85201  -4.37946
C     3.09847  -2.41640  -3.07373
C     2.11877  -1.63703  -2.48232
C     0.98297  -1.28988  -3.20408
C     2.28369   0.35730   2.80579
C     3.34039   0.16990   3.68069
C     3.25402   0.63413   4.98277
C     2.10835   1.28304   5.41710
C     1.05172   1.47699   4.54765
C     1.13912   1.01689   3.23712
C    -1.73016  -0.43751   3.51317
C    -2.81810  -0.87720   4.23918
C    -3.87140  -0.01078   4.49549
C    -3.83106   1.28982   4.02507
C    -2.73629   1.73974   3.30463
C    -1.67797   0.87789   3.05318
H    -0.82355   2.04548  -3.06659
H    -0.30553   1.06527  -4.47883
H     0.89526   1.68672  -3.31153
H    -1.03433   3.43737   1.27690
H     0.72707   3.42649   1.48839
H    -0.32784   3.56299   2.92281
H    -1.17881  -2.83868  -2.07667
H    -3.29291  -4.01742  -2.61321
H    -5.12618  -2.79862  -3.72859
H    -4.85178  -0.42067  -4.31139
H    -2.74965   0.74591  -3.79849
H    -0.06603  -1.47111  -5.06655
H     1.68543  -2.85963  -6.11349
H     3.70689  -3.46200  -4.83943
H     3.98174  -2.68731  -2.51491
H     2.21926  -1.30174  -1.45231
H     2.33308  -0.01730   1.78613
H     4.23108  -0.34136   3.34741
H     4.07836   0.48613   5.66473
H     2.03978   1.63698   6.43539
H     0.15077   1.97297   4.88408
H    -0.90564  -1.10504   3.27999
H    -2.85464  -1.89510   4.59756
H    -4.72836  -0.35546   5.05492
H    -4.65777   1.95875   4.21444
H    -2.71709   2.75260   2.93106
O    -1.26327   1.00281  -0.34788
