40

Mn    0.00000   0.00000   0.00000
C     0.80606   0.91967   2.59029
C     0.00920   0.01973   3.34815
C     0.06022   0.06183   4.74619
H    -0.55718  -0.62593   5.30234
C     0.87491   0.95502   5.40253
H     0.90152   0.97389   6.48117
C     1.66557   1.83484   4.66869
H     2.30746   2.53709   5.18005
C     1.63224   1.81724   3.29467
H     2.23721   2.49696   2.71300
O     0.81520   0.97623   1.28170
C    -0.85164  -0.93417   2.67240
N    -0.91034  -1.00035   1.38989
H    -1.56002  -1.70256   1.03880
O    -1.56506  -1.71970   3.50820
C    -2.45158  -2.67672   2.96398
H    -3.23475  -2.20276   2.36401
H    -2.90499  -3.16869   3.82257
H    -1.91943  -3.41993   2.36166
C     1.57494  -1.75839  -1.62260
C     2.10488  -0.76463  -2.48910
C     2.99145  -1.13700  -3.50605
H     3.37727  -0.36783  -4.15646
C     3.36668  -2.44914  -3.67860
H     4.05106  -2.71850  -4.46828
C     2.85947  -3.42861  -2.82941
H     3.15223  -4.45996  -2.96079
C     1.98436  -3.09103  -1.82463
H     1.57997  -3.84124  -1.16131
O     0.72400  -1.51843  -0.65616
C     1.72511   0.62607  -2.31775
N     0.92073   0.99651  -1.38586
H     0.72474   1.99650  -1.37858
O     2.28730   1.46447  -3.21530
C     1.97782   2.84246  -3.15744
H     0.90865   3.02033  -3.30969
H     2.53731   3.29664  -3.97320
H     2.29791   3.28624  -2.20931
O    -1.45321   0.51192  -0.59045
