61

Pt    0.00000   0.00000   0.00000
P    -1.10973   1.31311  -1.51076
P     1.36446  -1.16058   1.40803
C    -0.72426   3.15553  -1.38799
C    -0.67561   3.37626   0.12828
C    -1.78748   4.05845  -2.00856
C     0.63864   3.45299  -2.00512
C    -1.15051   0.55851  -3.23320
C    -2.00329   1.34824  -4.21939
C     0.27205   0.38320  -3.75645
C    -1.76202  -0.82386  -2.98037
C    -2.82540   1.35386  -1.11885
C    -4.15891   0.86495  -1.47836
C    -3.91008   1.80700  -0.45470
C     1.13505  -2.86503   2.15713
C     0.18665  -2.63481   3.33546
C     0.46364  -3.77431   1.13181
C     2.47772  -3.41570   2.62570
C     1.95659  -0.17183   2.72380
C     2.29862  -0.13319   4.14500
C     2.41089   0.98018   3.27018
C     2.68687  -0.88662   0.10668
C     2.56462  -1.96803  -0.96311
C     4.12965  -0.72666   0.56574
C     2.02289   0.41188  -0.39838
H     0.03988   2.69019   0.59592
H    -0.37214   4.39635   0.35703
H    -1.65519   3.20553   0.57410
H    -1.54001   5.09746  -1.79414
H    -1.83586   3.94211  -3.08803
H    -2.77428   3.85964  -1.59581
H     0.59752   3.39717  -3.09082
H     0.95130   4.46062  -1.73490
H     1.38722   2.75406  -1.64052
H    -1.51915   2.28043  -4.50321
H    -2.14842   0.75887  -5.12377
H    -2.98483   1.56801  -3.80213
H     0.25298  -0.16897  -4.69496
H     0.75754   1.33886  -3.93651
H     0.86360  -0.18216  -3.03763
H    -2.81270  -0.74216  -2.70301
H    -1.68853  -1.44085  -3.87415
H    -1.23027  -1.33064  -2.16602
H    -0.72431  -2.13981   2.99443
H    -0.09159  -3.58759   3.78257
H     0.65478  -2.01926   4.10367
H    -0.41187  -3.27831   0.70993
H     1.14059  -4.04362   0.32458
H     0.13113  -4.69208   1.61417
H     2.32511  -4.36214   3.14232
H     3.14759  -3.59235   1.78546
H     2.95688  -2.72437   3.31830
H     1.51366  -2.10123  -1.23923
H     3.11933  -1.67143  -1.85330
H     2.96755  -2.91934  -0.62028
H     4.53114  -1.66466   0.94530
H     4.74465  -0.40712  -0.27502
H     4.21280   0.02362   1.34995
H     2.32125   0.61861  -1.42983
H     2.35215   1.25365   0.22279
O    -1.43784  -0.58827   0.55593
