25

Zn    0.00000   0.00000   0.00000
Cl   -0.11643   2.27867   0.00338
S    -1.33755  -1.14715   1.91515
S     0.00849  -3.30645   0.25117
S     2.31890  -0.52992   1.11279
S     4.24803   0.88476   2.86301
N    -1.08699  -3.67504   2.52789
N     2.34486   2.08977   1.65046
C    -0.84463  -2.70941   1.63683
C     0.30305  -4.92248   1.08588
C    -0.78447  -5.03459   2.14341
C     2.85144   0.88878   1.80575
C     4.28263   2.71654   2.90518
C     2.89588   3.16017   2.44505
H     1.30052  -4.88162   1.52164
H     0.25804  -5.70981   0.33968
H    -0.44300  -5.59941   3.01317
H    -1.68135  -5.51881   1.73471
H    -1.65466  -3.46976   3.33628
H     5.06800   3.04207   2.22346
H     4.51947   3.03896   3.91512
H     2.94616   4.06792   1.84083
H     2.23673   3.34904   3.30154
H     1.48260   2.25562   1.07978
O    -0.48574  -0.80897  -1.35356
