43

Pd    0.00000   0.00000   0.00000
C    -0.98665   2.29552   2.61316
H    -1.51747   2.00975   1.69984
H    -0.71571   3.35263   2.57618
H    -1.63853   2.11854   3.46903
C     0.59225   0.60024   1.78470
C     2.08480   0.54292   3.45445
C     3.13703   0.30080   4.32313
H     3.90974  -0.41596   4.09267
C     3.15696   1.01580   5.50675
H     3.96090   0.85163   6.20743
C     2.16440   1.94239   5.81800
H     2.22049   2.47661   6.75368
C     1.11077   2.19151   4.95802
H     0.34322   2.90815   5.20220
C     1.07975   1.47882   3.76956
C     2.41919  -0.96827   1.42093
H     3.28111  -1.34462   1.98321
C     1.44496  -2.10776   1.10179
C     1.49045  -2.77085  -0.12602
H     2.24781  -2.52142  -0.85811
C     0.56563  -3.76151  -0.41535
H     0.59324  -4.24530  -1.37952
C    -0.40016  -4.10912   0.51316
H    -1.13690  -4.85972   0.27215
C    -0.42210  -3.48752   1.74999
H    -1.16735  -3.75866   2.48179
C     0.49744  -2.49718   2.04969
H     0.47092  -2.02313   3.02202
C     2.87711  -0.29382   0.13968
C     4.20528  -0.25747  -0.24970
H     4.96242  -0.72295   0.36258
C     4.53990   0.36779  -1.44313
H     5.56657   0.39887  -1.77371
C     3.53020   0.94267  -2.19863
H     3.74547   1.43315  -3.13399
C     2.22535   0.87253  -1.73945
H     1.39794   1.28732  -2.30309
Cl   -2.07687  -0.36931   0.71626
N     0.19353   1.47963   2.71381
N     1.73998   0.02982   2.22619
N     1.91156   0.26763  -0.59774
O    -0.36982  -0.51019  -1.52494
