47

Pd    0.00000   0.00000   0.00000
P     0.94964   1.99713   0.53203
N     2.72294   4.05660   0.13409
N     2.25990   3.46641   2.44104
C     2.30254   2.80589  -0.45832
H     3.16391   2.12853  -0.52041
H     1.94584   2.99101  -1.47976
N     0.59176   4.64932   1.12856
C     3.26342   3.86941   1.46976
H     3.69294   4.82015   1.79975
H     4.05390   3.11467   1.43434
C     1.17961   4.44008   2.44218
H     1.58585   5.39566   2.78730
H     0.40083   4.11070   3.13509
C    -0.15095   3.49119   0.68182
H    -0.59925   3.70672  -0.29792
H    -0.95915   3.28754   1.39541
C     1.63874   5.02205   0.19186
H     2.05442   5.98247   0.51141
H     1.20570   5.13562  -0.80580
C     1.77339   2.12620   2.19597
H     1.06090   1.85445   2.98508
H     2.61776   1.42379   2.23385
I    -1.51977   0.25807   2.07412
P    -0.94894  -1.99502  -0.53898
N    -2.72200  -4.05314  -0.13951
N    -2.25945  -3.46321  -2.44679
C    -2.30163  -2.80250   0.45281
H    -3.16302  -2.12515   0.51497
H    -1.94481  -2.98761   1.47423
N    -0.59089  -4.64616  -1.13416
C    -3.26268  -3.86607  -1.47514
H    -3.69222  -4.81687  -1.80492
H    -4.05320  -3.11138  -1.43966
C    -1.17895  -4.43670  -2.44769
H    -1.58514  -5.39231  -2.79277
H    -0.40022  -4.10732  -3.14065
C     0.15235  -3.48847  -0.68749
H     0.60040  -3.70383   0.29242
H     0.96045  -3.28480  -1.40113
C    -1.63784  -5.01866  -0.19732
H    -2.05364  -5.97906  -0.51678
H    -1.20474  -5.13224   0.80031
C    -1.77323  -2.12286  -2.20243
H    -1.06070  -1.85110  -2.99146
H    -2.61762  -1.42044  -2.23977
O     0.97075  -0.15843  -1.32478
