51

Mn    0.00000   0.00000   0.00000
C     2.57899  -0.74376  -0.94454
C     3.30034  -1.59622  -1.81668
H     2.73216  -2.13926  -2.55712
C     4.65363  -1.75409  -1.69453
H     5.17902  -2.42969  -2.35361
C     5.36674  -1.04526  -0.71977
H     6.43494  -1.17735  -0.63631
C     4.70980  -0.19020   0.12460
H     5.26933   0.35292   0.87048
C     3.31368  -0.01548   0.05239
C     2.60164   0.89112   0.89852
C    -0.15310  -1.27978   2.53764
C     0.21056  -2.39827   3.33965
H     0.79515  -3.16563   2.85474
C    -0.16285  -2.50191   4.64646
H     0.13044  -3.36117   5.23156
C    -0.94525  -1.49549   5.22507
H    -1.27180  -1.58977   6.24973
C    -1.30661  -0.39967   4.48942
H    -1.94076   0.33172   4.96433
C    -0.91881  -0.22110   3.14203
C    -1.33348   0.94162   2.40568
N    -1.19848   1.02627   1.10273
C    -1.76632   2.18399   0.42436
H    -2.80490   2.33967   0.73891
H    -1.18881   3.08345   0.68013
C    -1.75520   1.97192  -1.08870
H    -2.06283   2.89857  -1.59682
H    -2.46361   1.17468  -1.32675
C    -0.55322   0.99680  -2.91156
H    -1.22116   0.13694  -2.89787
H     0.42519   0.66775  -3.25787
H    -0.94223   1.75898  -3.59798
C     0.50412   2.65773  -1.58428
H     1.47450   2.31234  -1.94226
H     0.63809   3.07402  -0.58715
H     0.14212   3.44832  -2.25639
C     3.35087   1.74707   1.89502
H     2.64086   2.38840   2.41237
H     4.09677   2.36278   1.39609
H     3.85166   1.11612   2.62633
C    -1.96569   2.07880   3.17257
H    -1.72128   3.03618   2.71984
H    -1.60810   2.10249   4.19599
H    -3.05073   1.97231   3.18254
O     1.31089  -0.60406  -1.10361
O     1.35531   1.05388   0.83579
O     0.21869  -1.29851   1.31490
N    -0.43285   1.53414  -1.55367
O    -1.23885  -0.91589  -0.59067
