33

Au    0.00000   0.00000   0.00000
P    -0.39077  -2.22436  -0.05581
C     2.96166  -1.93195   0.43564
H     3.90665  -1.58741   0.01147
H     3.12722  -2.26105   1.45887
H     2.25826  -1.09621   0.45044
C    -3.06279  -1.85648   0.49214
H    -2.84955  -0.78812   0.52373
H    -3.93880  -2.04970   1.10910
H    -3.30013  -2.12862  -0.53598
N     2.41051  -3.03601  -0.35523
C    -1.86688  -2.66137   1.00400
C    -1.54276  -2.25769   2.44103
H    -0.68225  -2.81198   2.81134
H    -2.39007  -2.46376   3.09279
H    -1.31817  -1.19228   2.49587
C     2.23275  -2.59483  -1.74011
H     1.57653  -1.72322  -1.76801
H     1.77848  -3.39452  -2.32217
H     3.19163  -2.32383  -2.18717
B     0.99632  -3.55847   0.26396
C     3.36575  -4.14871  -0.32997
H     4.34015  -3.82861  -0.70440
H     2.99635  -4.96524  -0.94580
H     3.47465  -4.51135   0.68944
C    -2.16497  -4.15713   0.91814
H    -2.33574  -4.45537  -0.11539
H    -3.05762  -4.39265   1.49553
H    -1.33397  -4.73748   1.31097
H    -0.94127  -2.60812  -1.27388
H     0.71704  -4.56542  -0.30209
H     1.15677  -3.70010   1.43341
O     0.42024   1.59520   0.03506
