36

Re    0.00000   0.00000   0.00000
C    -0.80061  -0.90429  -1.54417
O    -1.17102  -1.40925  -2.49996
C    -0.16504  -1.64050   1.03812
O    -0.26737  -2.62628   1.61831
C    -1.68361   0.67778   0.68041
O    -2.67275   1.10235   1.08385
N     1.75483   1.11154   2.51426
C     1.17694   1.18927   1.30651
N     1.56033   2.40358   0.80520
C     2.35584   3.06700   1.71223
H     2.77284   4.03557   1.53566
C     2.46864   2.25528   2.78421
H     3.00704   2.38224   3.70084
N     0.38435   1.90909  -1.10560
C     1.18736   2.78155  -0.47756
C     1.62815   3.95729  -1.07578
H     2.28059   4.63092  -0.54563
C     1.22452   4.23272  -2.36792
H     1.55698   5.13277  -2.86091
C     0.39336   3.33057  -3.01763
H     0.05942   3.50556  -4.02682
C     0.00046   2.18785  -2.34903
H    -0.64411   1.46189  -2.82635
C     1.69693  -0.00286   3.38729
C     2.13769  -1.24204   2.94492
H     2.52497  -1.35238   1.94329
C     2.08703  -2.32467   3.80479
H     2.42193  -3.29108   3.46221
C     1.60944  -2.16759   5.09464
H     1.56865  -3.01511   5.76168
C     1.18495  -0.92412   5.53377
H     0.81435  -0.80102   6.54015
C     1.22836   0.16511   4.68281
H     0.88889   1.13652   5.01210
O     1.46374  -0.42340  -0.63300
