27

Zn    0.00000   0.00000   0.00000
Br    1.42463   1.51485   1.12683
O    -1.78917   0.40150   1.07069
N    -1.81743   1.45011   1.82144
C    -1.58895   2.66341   1.29639
H    -1.38909   2.69092   0.23544
C    -1.58163   3.78765   2.09170
H    -1.37363   4.74415   1.64148
C    -1.81698   3.66972   3.45160
H    -1.80159   4.53566   4.09267
C    -2.06080   2.40666   3.97124
H    -2.24345   2.26180   5.02360
C    -2.05485   1.31424   3.13580
H    -2.21432   0.30285   3.47784
O    -0.76110   1.09992  -1.64367
N    -1.44881   0.45379  -2.52295
C    -1.03980   0.44100  -3.80159
H    -0.13608   0.99492  -4.00689
C    -1.73086  -0.26346  -4.75972
H    -1.36870  -0.26309  -5.77500
C    -2.86840  -0.97259  -4.40322
H    -3.41439  -1.54348  -5.13587
C    -3.27656  -0.93962  -3.07957
H    -4.14520  -1.48525  -2.74922
C    -2.55146  -0.21822  -2.15794
H    -2.80544  -0.17728  -1.10913
O    -0.22409  -1.51865  -0.60497
