55

Ir    0.00000   0.00000   0.00000
Br   -0.70878  -0.67982   2.31468
B    -1.36631  -1.21563  -0.93251
O    -1.27616  -2.59621  -1.07834
O    -2.46754  -0.75126  -1.65615
C    -2.31683  -2.97846  -1.86218
C    -3.05059  -1.84099  -2.21955
C    -4.16847  -1.92797  -3.02267
H    -4.73389  -1.05087  -3.29502
C    -4.53066  -3.19474  -3.45939
H    -5.40084  -3.30318  -4.08878
C    -3.80339  -4.32170  -3.10466
H    -4.11949  -5.28953  -3.46299
C    -2.67822  -4.23638  -2.29650
H    -2.11337  -5.11082  -2.01518
P    -1.70946   1.59912   0.33494
C    -3.33733   0.94949   0.87522
H    -3.98934   1.78868   1.11715
H    -3.22371   0.31925   1.75359
H    -3.77906   0.36685   0.07112
C    -2.29774   2.73515  -0.98631
H    -2.50360   2.16702  -1.89085
H    -1.54890   3.49654  -1.18778
H    -3.21328   3.22367  -0.65486
C    -1.36026   2.79843   1.66923
H    -2.22495   3.44510   1.81573
H    -0.49008   3.39802   1.40908
H    -1.14235   2.25984   2.59015
P     1.46719  -1.83836   0.13402
C     1.92918  -2.79174  -1.37411
H     2.25402  -2.15462  -2.19162
H     1.04985  -3.34671  -1.69309
H     2.72750  -3.49142  -1.12849
C     3.08441  -1.47231   0.90937
H     2.88970  -1.06647   1.90231
H     3.63768  -0.72343   0.34796
H     3.67223  -2.38564   0.99646
C     0.95108  -3.25431   1.17177
H     1.64844  -4.07805   1.01980
H    -0.05242  -3.56453   0.89151
H     0.94742  -2.96382   2.21984
P     0.91348   0.78391  -1.99765
C     0.71219   2.53382  -2.50718
H     0.92882   3.19095  -1.66717
H    -0.29930   2.70560  -2.86509
H     1.41717   2.74325  -3.31206
C     0.28957  -0.02849  -3.53265
H     0.76346   0.39277  -4.41877
H    -0.78633   0.12461  -3.59300
H     0.47681  -1.09955  -3.49414
C     2.73053   0.65151  -2.24928
H     2.95171   0.71898  -3.31475
H     3.12797  -0.27991  -1.85573
H     3.20742   1.47630  -1.72234
O     1.14030   1.09026   0.48329
