53

Pd    0.00000   0.00000   0.00000
Cl   -1.99165   1.11068   0.07775
N     0.93378   1.67215   0.53129
C     0.87621   2.07864   1.79688
H     0.33824   1.43034   2.48793
C     1.45306   3.26431   2.21725
H     1.38624   3.56171   3.25197
C     2.10864   4.05650   1.28673
H     2.56688   4.98846   1.58180
C     2.16168   3.62765  -0.03058
H     2.66032   4.21321  -0.78693
C     1.56103   2.42654  -0.36645
H     1.58474   2.04502  -1.38610
C    -0.98812  -1.60544  -0.50227
N    -1.19158  -2.07807  -1.74457
N    -1.95942  -3.14334  -1.77689
N    -2.29542  -3.37568  -0.53191
C    -3.11235  -4.51820  -0.23916
H    -4.16746  -4.24019  -0.20868
H    -2.81863  -4.94584   0.71824
H    -2.96848  -5.24695  -1.03561
C    -1.74010  -2.46654   0.30795
C    -1.93444  -2.31616   1.74119
C    -0.90866  -1.71923   2.48630
H     0.04718  -1.48336   2.00785
C    -1.08169  -1.47692   3.83596
H    -0.28366  -1.02314   4.40545
C    -2.27005  -1.81770   4.46337
H    -2.40309  -1.62238   5.51685
C    -3.28884  -2.40193   3.73168
H    -4.22164  -2.65823   4.21198
C    -3.12779  -2.64871   2.38028
H    -3.95255  -3.06187   1.82118
C    -0.63394  -1.50940  -2.94487
H    -0.50905  -0.42894  -2.75221
H    -1.34581  -1.67090  -3.75788
C     0.72224  -2.14069  -3.27417
H     1.37348  -2.03832  -2.40148
H     1.16903  -1.57896  -4.09572
C     0.59582  -3.61039  -3.66257
H     0.07641  -4.14824  -2.86887
H    -0.00438  -3.69857  -4.57212
C     1.96647  -4.24221  -3.89247
H     2.50086  -3.65872  -4.64605
H     2.54243  -4.18996  -2.96647
C     1.88849  -5.69521  -4.36136
H     2.89511  -6.02907  -4.62314
H     1.27708  -5.75134  -5.26530
C     1.31883  -6.63654  -3.30618
H     1.87949  -6.54824  -2.37827
H     1.37944  -7.66773  -3.64729
H     0.27542  -6.40966  -3.10255
O     1.45364  -0.77638  -0.08161
