47

Pd    0.00000   0.00000   0.00000
Cl    2.10815   0.45909  -0.77989
N    -0.31693   1.93110   0.41450
C    -1.35568   2.62313  -0.04671
H    -1.96617   2.14012  -0.80326
C    -1.66751   3.88969   0.41603
H    -2.51886   4.41517   0.01328
C    -0.87586   4.45787   1.40163
H    -1.09593   5.44166   1.78816
C     0.20299   3.73175   1.88149
H     0.84616   4.13228   2.64938
C     0.44885   2.47334   1.36011
H     1.29799   1.88066   1.69523
C     0.37608  -1.91104  -0.25140
N    -0.05251  -2.87669  -1.08876
N     0.57878  -4.02201  -0.92435
N     1.44586  -3.81935   0.03514
C     2.28176  -4.90118   0.46887
H     1.75842  -5.83549   0.27160
H     2.48728  -4.79997   1.53340
H     3.22257  -4.90321  -0.08457
C     1.37331  -2.55164   0.49890
C     2.18127  -1.94251   1.54701
C     1.56824  -1.03058   2.41611
H     0.48681  -0.87641   2.37559
C     2.32342  -0.37362   3.37129
H     1.84556   0.32449   4.04406
C     3.68594  -0.60857   3.47149
H     4.27268  -0.08588   4.21224
C     4.29389  -1.51030   2.61572
H     5.35672  -1.68910   2.68410
C     3.54985  -2.17506   1.65776
H     4.04621  -2.83847   0.96609
C    -1.12749  -2.84052  -2.05724
H    -2.02549  -3.23593  -1.56881
H    -0.84374  -3.51883  -2.86720
C    -1.41183  -1.43601  -2.57695
H    -1.63066  -0.78304  -1.71514
H    -2.30926  -1.48139  -3.19655
C    -0.25256  -0.83796  -3.37799
H     0.69673  -1.05274  -2.87831
H    -0.22099  -1.27929  -4.37724
C    -0.39922   0.67673  -3.46798
H     0.39547   1.10416  -4.07362
H    -0.31975   1.09984  -2.45720
H    -1.35963   0.95245  -3.90060
O    -1.46721  -0.33515   0.67636
