44

C    -0.08131   1.80005  -0.50906
C     0.29517   2.78716   0.39861
C     0.41599   4.09613  -0.04746
H     0.71520   4.86363   0.65359
C     0.14887   4.43637  -1.36699
C    -0.25239   3.44152  -2.24500
H    -0.48037   3.68898  -3.27301
C    -0.38204   2.12156  -1.82889
C     0.55351   2.43606   1.83921
H     1.51374   2.82603   2.17481
H     0.54839   1.34351   1.96853
H    -0.22963   2.85340   2.47141
C     0.29564   5.85870  -1.82239
H     1.34749   6.14664  -1.83617
H    -0.22474   6.53190  -1.14347
H    -0.10947   5.99006  -2.82258
C    -0.85134   1.05605  -2.78271
H    -0.27613   1.07263  -3.70758
H    -1.90237   1.20928  -3.02563
H    -0.75062   0.06320  -2.31896
C    -0.58719  -2.82637   0.99648
H    -1.60142  -2.48556   1.16474
C    -0.21649  -4.13988   1.29915
H    -0.95274  -4.81705   1.70159
C     1.07842  -4.54273   1.07970
H     1.40114  -5.54922   1.30378
C     1.99788  -3.62170   0.55187
C     1.52910  -2.32009   0.27498
C     3.35988  -3.93966   0.28819
H     3.70035  -4.94046   0.51003
C     4.20552  -3.01509  -0.22645
H     5.23869  -3.25904  -0.42597
C     3.76354  -1.69417  -0.52238
C     2.42034  -1.34122  -0.26979
C     4.60537  -0.70902  -1.06093
H     5.63969  -0.94236  -1.26722
C     4.08641   0.53808  -1.31518
H     4.69784   1.32339  -1.73047
C     2.74450   0.79556  -1.03104
H     2.32693   1.77412  -1.22670
N     0.25513  -1.94358   0.50148
N     1.92819  -0.10867  -0.52242
Ni    0.00000   0.00000   0.00000
O    -1.58499   0.13157   0.43932
