36

Zn    0.00000   0.00000   0.00000
N     0.54667  -1.92548   0.85333
N    -0.33558  -1.26361  -1.53186
N    -0.73483  -0.73429  -2.66128
O    -0.28488   1.27694  -1.65048
O    -3.02167   3.13167  -7.07683
O     2.01925   0.99643   0.14347
C     0.92918  -2.21909   2.08194
H     1.02789  -1.37934   2.75498
C     1.18388  -3.51723   2.49525
H     1.49775  -3.71585   3.50695
C     1.02645  -4.54668   1.57529
H     1.21738  -5.57064   1.86062
C     0.61751  -4.24339   0.29202
H     0.47570  -5.01468  -0.44897
C     0.37685  -2.90718  -0.04626
C    -0.05538  -2.50844  -1.35989
H    -0.12891  -3.23748  -2.15982
C    -0.75460   0.61148  -2.60708
C    -1.33215   1.28053  -3.77781
C    -1.46157   2.66685  -3.78392
H    -1.12410   3.22261  -2.92206
C    -2.01946   3.32448  -4.86197
H    -2.10990   4.39898  -4.83386
C    -2.45904   2.59581  -5.96533
C    -2.32682   1.20198  -5.96320
H    -2.67297   0.65865  -6.82837
C    -1.77375   0.55317  -4.88583
H    -1.67012  -0.51953  -4.87609
C    -3.20040   4.52689  -7.14358
H    -3.85524   4.88623  -6.34366
H    -3.67132   4.71719  -8.10669
H    -2.24394   5.05709  -7.09788
H     1.98893   1.65493  -0.55997
H     1.83911   1.47930   0.96274
O    -0.45991   0.83869   1.34446
