51

Ru    0.00000   0.00000   0.00000
Cl   -0.66709   0.73906   2.11935
O    -0.41766   1.47010  -3.08976
O    -2.57246   1.84407  -1.47541
O    -3.43288  -0.07555   0.12542
N     1.41753  -2.43871   0.19524
N     2.34426  -1.12438   1.65141
C     2.47127  -3.27923   0.73365
H     3.17743  -3.56220  -0.05553
H     2.05146  -4.19409   1.16576
C     3.10231  -2.36223   1.78844
H     2.99368  -2.75948   2.80106
H     4.16266  -2.16966   1.60063
C     1.39134  -1.20456   0.74317
C     0.54674  -2.86842  -0.87672
H    -0.02137  -3.75357  -0.55870
H     1.14654  -3.13978  -1.75694
C    -0.36969  -1.70395  -1.17481
C     0.04394  -0.71660  -2.10816
H     0.88096  -0.91049  -2.76640
C    -0.68999   0.48938  -2.21311
C    -1.82012   0.70706  -1.37376
C    -2.28568  -0.33395  -0.51642
C    -1.56339  -1.54704  -0.41971
H    -1.92999  -2.36158   0.19152
C     0.86794   1.51845  -3.68216
H     1.64470   1.49941  -2.91148
H     0.90434   2.46778  -4.21246
H     1.01255   0.70053  -4.39480
C    -1.94101   3.00776  -0.94881
H    -1.60154   2.82765   0.07904
H    -2.69961   3.78656  -0.95508
H    -1.08928   3.30917  -1.56440
C    -3.76469  -0.84879   1.26361
H    -4.03981  -1.87241   0.98929
H    -4.62411  -0.35119   1.70768
H    -2.93589  -0.85228   1.97859
C     2.62005  -0.00144   2.51255
H     2.10837   0.86794   2.09111
H     3.69813   0.17903   2.50209
C     2.11531  -0.23630   3.93865
H     1.10426  -0.64074   3.87029
H     2.75358  -0.95836   4.45473
C     2.05465   1.06289   4.73846
H     1.38582   1.75170   4.22240
H     1.61867   0.84561   5.71574
C     3.41933   1.71238   4.93228
H     4.12027   1.00895   5.37881
H     3.33423   2.57281   5.59146
H     3.82450   2.05390   3.98393
O     1.05761   1.25915  -0.13600
