23

C    -1.46623  -0.53769   3.16950
H    -2.37783  -0.84848   2.65734
H    -1.48650   0.54306   3.30791
H    -1.40058  -1.03428   4.13878
C     1.38398  -0.52461   3.20831
H     1.29233  -1.01788   4.17720
H     1.39766   0.55647   3.34326
H     2.31047  -0.83494   2.72337
C    -0.00991  -2.80391   2.28862
H    -0.00515  -3.09334   3.34039
H     0.88045  -3.19518   1.79707
H    -0.89251  -3.21556   1.80039
Au    0.00000   0.00000   0.00000
C    -0.05539  -1.82561  -0.90411
H    -0.89910  -2.38441  -0.50729
H     0.85490  -2.36780  -0.66282
H    -0.15344  -1.80462  -1.98176
C     0.03570   0.85772  -1.84457
H     0.29305   0.18551  -2.65400
H     0.75548   1.67083  -1.84973
H    -0.94236   1.28040  -2.05796
P    -0.02499  -0.98253   2.14784
O     0.00130   1.45877   0.77103
