61

Pd    0.00000   0.00000   0.00000
C     1.91562   0.44428   0.40902
C     3.78940   1.53134   0.95909
H     4.50580   2.32595   0.92760
C     3.78681   0.36442   1.63598
H     4.50694  -0.05665   2.30622
C     2.29407   2.66860  -0.60848
C     2.04911   2.49236  -1.96335
H     2.07230   1.50438  -2.39530
C     1.81815   3.59826  -2.76194
H     1.63755   3.45940  -3.81676
C     1.83755   4.87008  -2.21562
H     1.67404   5.73194  -2.84517
C     2.06520   5.03970  -0.85937
H     2.06960   6.02981  -0.42821
C     2.29416   3.94189  -0.05065
H     2.46999   4.06358   1.00846
C     2.19296  -1.50415   1.86467
C     2.40006  -1.73317   3.21984
H     2.85628  -0.96999   3.83238
C     1.99274  -2.92907   3.78148
H     2.15129  -3.10199   4.83520
C     1.38642  -3.89688   2.99916
H     1.08397  -4.83529   3.43815
C     1.16928  -3.66184   1.65205
H     0.70476  -4.41628   1.03575
C     1.55683  -2.46305   1.07932
H     1.43884  -2.31388   0.01018
I    -0.47576   0.96049   2.40752
N     2.63450   1.56588   0.21119
N     2.63153  -0.29259   1.28975
C    -1.91564  -0.44587  -0.40789
C    -3.78816  -1.53420  -0.95991
H    -4.50409  -2.32926  -0.92922
C    -3.78583  -0.36709  -1.63645
H    -4.50576   0.05369  -2.30708
C    -2.29360  -2.67067   0.60888
C    -2.04726  -2.49369   1.96341
H    -2.06907  -1.50535   2.39464
C    -1.81707  -3.59925   2.76271
H    -1.63542  -3.45975   3.81726
C    -1.83838  -4.87147   2.21740
H    -1.67524  -5.73303   2.84745
C    -2.06728  -5.04186   0.86146
H    -2.07304  -6.03230   0.43105
C    -2.29559  -3.94442   0.05206
H    -2.47248  -4.06681  -1.00679
C    -2.19299   1.50250  -1.86364
C    -2.39964   1.73170  -3.21886
H    -2.85549   0.96854  -3.83169
C    -1.99236   2.92776  -3.78019
H    -2.15062   3.10083  -4.83394
C    -1.38644   3.89555  -2.99754
H    -1.08392   4.83404  -3.43633
C    -1.16985   3.66039  -1.65036
H    -0.70571   4.41484  -1.03379
C    -1.55744   2.46147  -1.07792
H    -1.43986   2.31217  -0.00876
N    -2.63379  -1.56820  -0.21114
N    -2.63134   0.29067  -1.28907
O     0.29840  -0.60211  -1.50696
