59

Pd    0.00000   0.00000   0.00000
Br    1.90349   0.76430  -1.34000
C     0.14582  -1.78815  -0.89436
C    -1.81721  -1.66158  -2.37744
H    -1.90243  -0.70269  -1.83493
C    -3.05926  -2.49777  -2.08602
H    -3.15026  -2.66591  -1.01508
H    -3.01382  -3.45868  -2.59407
H    -3.94438  -1.96598  -2.42371
C    -1.63435  -1.38446  -3.86742
H    -1.52729  -2.31300  -4.42426
H    -0.74684  -0.77543  -4.03092
H    -2.50010  -0.85417  -4.25392
C    -0.13824  -3.52834  -2.24954
H    -0.60882  -4.12899  -2.99950
C     0.98400  -3.75590  -1.53124
H     1.65610  -4.58891  -1.52831
C     2.19975  -2.48352   0.21520
C     3.50211  -2.79542  -0.15432
H     3.70278  -3.17730  -1.14398
C     4.53658  -2.58261   0.73799
H     5.54917  -2.81474   0.44520
C     4.27705  -2.06767   1.99689
H     5.08755  -1.90464   2.69116
C     2.97743  -1.76522   2.36659
H     2.77033  -1.38415   3.35525
C     1.93145  -1.96202   1.47958
H     0.90386  -1.76928   1.79104
C    -0.13377   1.79134   0.89486
C     1.88032   1.68465   2.31351
H     1.93156   0.70361   1.80726
C     3.11118   2.49884   1.92664
H     3.09276   3.48183   2.39224
H     3.15313   2.61857   0.84637
H     4.00886   1.97725   2.24649
C     1.77497   1.46990   3.82094
H     0.88769   0.88552   4.05811
H     1.71653   2.42135   4.34519
H     2.65227   0.93845   4.17884
C     0.19716   3.54765   2.21937
H     0.69283   4.15614   2.94647
C    -0.94617   3.76984   1.53359
H    -1.61604   4.60461   1.54105
C    -2.21894   2.48435  -0.15932
C    -3.50741   2.80496   0.24918
H    -3.67434   3.19643   1.24138
C    -4.57106   2.58755  -0.60679
H    -5.57283   2.82592  -0.28342
C    -4.35408   2.05878  -1.86793
H    -5.18734   1.89067  -2.53340
C    -3.06820   1.74774  -2.27649
H    -2.89589   1.35488  -3.26722
C    -1.99311   1.95043  -1.42653
H    -0.97582   1.75026  -1.76764
N    -0.63374  -2.31378  -1.84962
N     1.14198  -2.67918  -0.69406
N     0.67642   2.32654   1.81971
N    -1.13260   2.68379   0.71463
O    -1.29694  -0.51611   0.87982
