59

Pd    0.00000   0.00000   0.00000
C    -1.33875  -0.98529   1.11283
C    -2.12704  -2.77374   2.19489
H    -2.20947  -3.80591   2.46482
C    -2.73560  -1.67858   2.69740
H    -3.46334  -1.59198   3.47613
C    -2.62256   0.78569   2.27770
H    -1.96168   1.40289   1.65134
C    -4.07472   1.00593   1.86146
H    -4.21831   0.74577   0.81401
H    -4.34054   2.04992   1.99833
H    -4.74365   0.39725   2.46640
C    -2.39423   1.15035   3.74081
H    -3.07149   0.60597   4.39438
H    -2.56467   2.21455   3.87716
H    -1.36990   0.92967   4.03065
C    -0.44359  -3.18034   0.43739
C    -0.98785  -4.35313  -0.07733
H    -2.01419  -4.61097   0.13785
C    -0.22350  -5.18155  -0.87683
H    -0.62974  -6.09412  -1.28302
C     1.08241  -4.81973  -1.16129
C     1.65271  -3.67073  -0.64261
H     2.67819  -3.42360  -0.86809
C     0.88683  -2.84770   0.16740
H     1.36405  -1.98392   0.63368
C    -1.12149   0.19839  -1.64454
C    -2.29471   1.35855  -3.15064
H    -2.82956   2.19301  -3.55393
C    -1.94550   0.18035  -3.70930
H    -2.14266  -0.20254  -4.68810
C    -0.64619  -1.83144  -2.98426
H    -0.04784  -2.04524  -2.08640
C     0.27561  -1.82758  -4.19930
H    -0.28456  -1.68291  -5.11984
H     0.79607  -2.77925  -4.25861
H     1.01818  -1.03845  -4.10955
C    -1.75520  -2.87179  -3.12000
H    -2.39815  -2.86650  -2.24123
H    -1.31848  -3.86060  -3.22325
H    -2.36441  -2.67012  -3.99863
C    -1.93604   2.41956  -0.95208
C    -3.18555   3.01912  -0.82598
H    -4.00823   2.68540  -1.44080
C    -3.38157   4.02973   0.09597
H    -4.34312   4.50537   0.20565
C    -2.32041   4.42478   0.89290
C    -1.06329   3.85997   0.76989
H    -0.25116   4.20074   1.39269
C    -0.86739   2.85446  -0.16315
H     0.14231   2.46582  -0.30732
F     1.81356  -5.61683  -1.96014
F    -2.52318   5.39185   1.80493
I     2.06370   0.53037  -1.56856
N    -1.25753  -2.33481   1.22400
N    -2.24129  -0.59147   2.02239
N    -1.77182   1.36565  -1.87867
N    -1.22762  -0.51845  -2.77224
O     0.76904   0.32734   1.42265
