23

Cu    0.00000   0.00000   0.00000
S    -1.32968  -2.02392  -0.38236
S    -0.35711   0.58694  -2.35283
S     1.98240  -1.26648  -0.69990
C    -2.18035  -1.50257  -1.91432
H    -2.93448  -0.80515  -1.54749
H    -2.68097  -2.37951  -2.32873
C    -1.32941  -0.83804  -2.98505
H    -0.63144  -1.53588  -3.44447
H    -1.99064  -0.45147  -3.76204
C     1.32081   0.22711  -2.98328
H     1.90085   1.07993  -2.62848
H     1.27755   0.25740  -4.07351
C     1.96691  -1.07154  -2.52677
H     1.47190  -1.94487  -2.94803
H     3.00733  -1.07439  -2.85519
C     1.31634  -2.95496  -0.48025
H     1.33800  -3.08506   0.60247
H     2.02366  -3.65099  -0.93466
C    -0.08381  -3.21893  -1.01105
H    -0.12065  -3.19253  -2.09876
H    -0.39858  -4.20985  -0.68048
O    -0.11485   1.01709   1.29416
