46

Ti    0.00000   0.00000   0.00000
Cl   -2.02508  -0.59082  -0.64788
P    -0.11239   3.41619   0.69542
N    -0.13348   1.72383   0.64144
N    -0.81036   1.01204   1.62810
C    -0.12006   1.02554   2.91582
C    -2.21241   1.38109   1.79934
C     1.63485   3.67887   0.17423
C     2.60848   3.16235   1.02666
C     3.95170   3.34135   0.75530
C     4.34085   4.05153  -0.36932
C     3.37972   4.58432  -1.21111
C     2.03380   4.40657  -0.94045
C    -0.98975   3.86953  -0.85991
C    -1.58163   2.92627  -1.69073
C    -2.27469   3.33352  -2.81780
C    -2.39068   4.68045  -3.11900
C    -1.82454   5.62685  -2.27976
C    -1.13706   5.22432  -1.14995
C     1.27884   0.92459  -1.70615
C     0.49540  -0.09061  -2.29044
C     0.88959  -1.32470  -1.73015
C     1.93272  -1.07575  -0.81910
C     2.15831   0.31579  -0.77724
H     0.92053   0.71920   2.76604
H    -0.15170   2.03993   3.33881
H    -0.59842   0.32411   3.59921
H    -2.69725   1.43418   0.82200
H    -2.28127   2.36178   2.28973
H    -2.71426   0.62754   2.40759
H     2.30260   2.61224   1.90904
H     4.69723   2.93051   1.42128
H     5.38935   4.19243  -0.58535
H     3.67862   5.14228  -2.08679
H     1.29563   4.82975  -1.60682
H    -1.50339   1.86784  -1.45293
H    -2.72911   2.59329  -3.46010
H    -2.93006   4.99406  -4.00048
H    -1.92539   6.67902  -2.50375
H    -0.70560   5.95988  -0.48324
H     1.29841   1.96232  -2.00757
H    -0.21526   0.03855  -3.09838
H     0.52224  -2.30023  -2.02471
H     2.50865  -1.82643  -0.29283
H     2.96915   0.81066  -0.25739
O     0.14823  -1.22244   1.09826
