55

Ta    0.00000   0.00000   0.00000
Cl    1.47788  -0.34810  -1.65649
P     0.30194   2.72500   0.69312
Si    1.28102   0.90256   3.29139
O     0.06145   2.28601  -0.71202
O    -0.89914   0.81431   1.50549
O     1.64166   3.61782   0.82706
O    -0.92823   3.68122   1.05569
C     2.05175   4.43464  -0.26162
C    -1.09492   4.19644   2.36435
C     1.52164   2.54194   4.24551
C     2.99448   0.21262   2.80418
C     0.21105  -0.32706   4.27747
C     0.39613   1.22951   1.65698
C    -2.28291   0.16473  -0.91918
C    -1.84148  -0.03982  -2.25518
C    -1.53852  -1.40315  -2.42791
C    -1.77106  -2.07049  -1.21482
C    -2.21433  -1.11367  -0.24875
C    -3.07509   1.34897  -0.46150
C    -1.72894   1.04527  -3.27337
C    -0.95032  -1.99334  -3.66640
C    -1.59252  -3.52127  -0.92079
C    -2.90393  -1.46456   1.03536
H     3.13996   4.47671  -0.23730
H     1.63738   5.43874  -0.15563
H     1.71509   4.00175  -1.20439
H    -1.89325   4.93577   2.30378
H    -0.17626   4.66691   2.71902
H    -1.38145   3.39725   3.04946
H     0.59953   2.90420   4.68916
H     1.90942   3.31705   3.59155
H     2.23510   2.40070   5.04986
H     2.90098  -0.71743   2.24901
H     3.60528   0.01491   3.67880
H     3.53401   0.91952   2.17830
H     0.67088  -0.57052   5.22964
H     0.08462  -1.24825   3.71591
H    -0.77901   0.07448   4.47559
H    -3.08907   1.40214   0.62482
H    -4.10313   1.27505  -0.82106
H    -2.63981   2.27032  -0.84474
H    -1.22345   1.90491  -2.83408
H    -2.71656   1.36858  -3.60633
H    -1.15961   0.71403  -4.13719
H    -1.40609  -1.56497  -4.55649
H    -1.08693  -3.07077  -3.69304
H     0.12180  -1.78395  -3.69309
H    -1.29466  -4.07010  -1.80903
H    -2.51766  -3.94977  -0.53607
H    -0.81992  -3.65264  -0.15997
H    -2.41576  -2.31781   1.50234
H    -3.94923  -1.71719   0.85049
H    -2.86435  -0.62490   1.72512
O     0.46566  -1.38271   0.77056
