36

Pt    0.00000   0.00000   0.00000
N    -1.38423  -1.99040  -2.09126
O    -1.25769  -3.76477  -0.78445
N    -1.29547   0.91860  -1.18718
Cl    1.73040   1.07846  -1.06241
S     1.45655  -0.97200   1.40257
O     1.76801  -0.13381   2.54586
O     0.59161  -2.52310  -1.06536
C    -1.87340   2.03646  -0.74442
H    -1.56123   2.38675   0.23282
C    -2.81914   2.72183  -1.48333
H    -3.25924   3.62362  -1.09029
C    -3.18156   2.22839  -2.72731
H    -3.91648   2.73606  -3.33227
C    -2.57843   1.06550  -3.17829
H    -2.83359   0.65117  -4.14121
C    -1.63167   0.42981  -2.38778
C    -0.95102  -0.84009  -2.84031
H    -1.14822  -1.00486  -3.90587
H     0.13141  -0.74491  -2.67699
C    -2.74191  -2.47733  -2.08669
H    -3.03247  -2.82398  -3.08617
H    -3.43811  -1.70222  -1.75522
C    -2.64363  -3.62206  -1.06511
H    -3.14835  -3.36695  -0.12905
H    -3.01419  -4.57644  -1.44350
C    -0.58217  -2.72421  -1.28228
C     3.02092  -1.45927   0.63144
H     3.49704  -0.56350   0.24785
H     2.77920  -2.13595  -0.17853
H     3.64237  -1.92716   1.38577
C     0.95813  -2.59218   2.05246
H     1.72856  -2.92706   2.73707
H     0.84092  -3.26520   1.21204
H     0.01552  -2.47180   2.57572
O    -1.27830  -0.73039   0.74497
