42

Pd    0.00000   0.00000   0.00000
I     0.89903  -0.40202  -2.37751
C    -1.75817   0.45526  -0.79188
N    -2.10666   1.51346  -1.53600
C    -3.42349   1.41460  -1.90601
H    -3.90528   2.15620  -2.50899
C    -3.90260   0.26711  -1.37512
H    -4.87761  -0.17256  -1.41479
N    -2.86577  -0.30909  -0.67502
C    -1.20963   2.57631  -1.90718
H    -1.67493   3.54454  -1.72012
H    -0.94281   2.49792  -2.96328
H    -0.29162   2.48554  -1.30903
C    -2.93726  -1.55317  -0.00884
C    -2.57114  -1.69384   1.33718
C    -2.73892  -2.93002   1.95801
H    -2.46233  -3.03066   2.99626
C    -3.23470  -4.01142   1.25530
H    -3.34584  -4.96443   1.74808
C    -3.58147  -3.87069  -0.07853
H    -3.96017  -4.71384  -0.63480
C    -3.44253  -2.64556  -0.70405
H    -3.70854  -2.52676  -1.74397
C    -2.00168  -0.60262   2.13895
N    -0.98525   0.09445   1.81893
C    -0.64862   0.99824   2.89950
H     0.34108   0.71437   3.28177
C    -1.75061   0.69248   3.93834
H    -1.34519   0.32636   4.88350
H    -2.41256   1.53907   4.13461
O    -2.52957  -0.35409   3.34730
C    -0.53851   2.43787   2.36316
H     0.13860   2.36894   1.48690
C    -1.87909   3.00183   1.89360
H    -2.52869   3.22852   2.73682
H    -2.39477   2.29906   1.23819
H    -1.71646   3.92526   1.34294
C     0.10522   3.34578   3.40421
H     0.20527   4.35408   3.01059
H     1.09496   2.98244   3.66870
H    -0.50278   3.38634   4.30611
O     1.43252  -0.30310   0.76059
