59

Pd    0.00000   0.00000   0.00000
N    -0.67609  -1.42392   1.20998
N    -1.75912  -2.17423   1.01414
C    -2.40805  -2.21347  -0.27150
C    -1.90725  -3.37355  -1.12742
C    -2.08591  -2.84752   2.13904
C    -3.25461  -3.75858   2.22926
C    -1.16511  -2.48821   3.10096
C    -0.29074  -1.58963   2.47187
C     0.86999  -0.89063   3.01645
C     2.03154  -0.76176   2.25021
C     3.13280  -0.10464   2.77738
C     3.08079   0.44092   4.04929
C     1.92917   0.31451   4.80882
C     0.83132  -0.35378   4.30073
H    -1.11608  -2.83318   4.11309
H    -2.16577  -1.26397  -0.77983
H     2.09491  -1.24041   1.27303
H    -3.48857  -2.27775  -0.11526
H    -2.08110  -4.33015  -0.64039
H    -0.07079  -0.44577   4.88655
H     4.03917  -0.02502   2.19372
H    -3.31924  -4.16555   3.23420
H    -2.42242  -3.36575  -2.08377
H    -3.16507  -4.58351   1.52393
H    -0.84079  -3.25591  -1.31008
H     1.88739   0.73850   5.80127
H    -4.17870  -3.22319   2.01095
H     3.93965   0.95832   4.45120
Cl   -1.07504   1.51530   1.34584
N     0.67631   1.42377  -1.20996
N     1.75935   2.17406  -1.01413
C     2.40827   2.21339   0.27153
C     1.90743   3.37350   1.12739
C     2.08616   2.84733  -2.13903
C     3.25485   3.75840  -2.22921
C     1.16538   2.48800  -3.10096
C     0.29099   1.58944  -2.47186
C    -0.86975   0.89046  -3.01643
C    -2.03130   0.76164  -2.25019
C    -3.13261   0.10459  -2.77737
C    -3.08062  -0.44100  -4.04927
C    -1.92897  -0.31469  -4.80878
C    -0.83110   0.35357  -4.30070
H     1.11637   2.83294  -4.11310
H     2.16606   1.26392   0.77991
H    -2.09464   1.24025  -1.27300
H     3.48878   2.27773   0.11527
H     2.08125   4.33008   0.64031
H     0.07098   0.44558  -4.88655
H    -4.03894   0.02491  -2.19366
H     3.31949   4.16539  -3.23415
H     2.42259   3.36577   2.08374
H     3.16529   4.58332  -1.52388
H     0.84097   3.25584   1.31004
H    -1.88723  -0.73863  -5.80125
H     4.17894   3.22301  -2.01090
H    -3.93948  -0.95844  -4.45115
O     0.77322  -1.08995  -0.96780
