69

Re    0.00000   0.00000   0.00000
Cl   -2.26443  -0.43222   0.35686
P     2.41065  -0.25463  -0.44948
O     0.25909   1.72092   2.32723
N     0.18528  -1.91154   1.05132
N     0.20572   0.50884   2.00236
N    -0.19164   1.66361  -0.52896
C     0.08478  -3.13021   0.52732
H    -0.01556  -3.17840  -0.54941
C     0.10326  -4.28216   1.28309
H     0.02052  -5.24224   0.80118
C     0.22495  -4.17148   2.66606
H     0.24659  -5.05479   3.28700
C     0.30125  -2.92002   3.22664
H     0.37468  -2.79003   4.29354
C     0.26720  -1.78620   2.39745
C     0.30970  -0.45168   2.89654
C     0.45572  -0.13168   4.35359
H     0.50466   0.95087   4.45339
H     1.36546  -0.57107   4.76189
H    -0.39873  -0.49927   4.92018
C    -0.46160   2.92394  -0.84081
C    -0.39633   3.93367   0.14421
H    -0.12424   3.64259   1.14740
C    -0.71260   5.22916  -0.18534
H    -0.67118   5.99599   0.57465
C    -1.09435   5.57816  -1.48181
C    -1.15816   4.58030  -2.45177
H    -1.46130   4.83479  -3.45725
C    -0.84871   3.27399  -2.15108
H    -0.91514   2.49413  -2.89495
C    -1.42403   6.99928  -1.80864
H    -1.83432   7.08772  -2.81099
H    -0.52737   7.61605  -1.74547
H    -2.14593   7.39440  -1.09596
C     2.95977  -1.93648  -0.06506
C     2.83175  -2.94937  -1.01160
H     2.47684  -2.70815  -2.00385
C     3.13593  -4.25397  -0.66693
H     3.04181  -5.03831  -1.40321
C     3.54585  -4.55733   0.62131
H     3.77687  -5.57778   0.88863
C     3.64851  -3.55446   1.57259
H     3.95355  -3.79308   2.58099
C     3.35287  -2.24727   1.23510
H     3.42020  -1.46126   1.97630
C     2.96338   0.06849  -2.15151
C     2.26658   1.01010  -2.90013
H     1.38179   1.46555  -2.47681
C     2.69147   1.33402  -4.17490
H     2.14220   2.05826  -4.75770
C     3.81695   0.72438  -4.70516
H     4.14560   0.97007  -5.70407
C     4.52083  -0.20375  -3.95566
H     5.39948  -0.67782  -4.36821
C     4.10235  -0.53059  -2.67848
H     4.65479  -1.25820  -2.10066
C     3.57098   0.82108   0.45440
C     4.91618   0.48804   0.58745
H     5.28248  -0.45372   0.20295
C     5.78048   1.35850   1.22389
H     6.82275   1.09569   1.33257
C     5.31252   2.56489   1.72241
H     5.99255   3.23888   2.22215
C     3.97720   2.90304   1.58067
H     3.60915   3.84013   1.96992
C     3.10575   2.03648   0.94394
H     2.05865   2.28654   0.84392
O    -0.04039  -0.85452  -1.41091
