45

Pd    0.00000   0.00000   0.00000
Cl   -0.10823   2.18893   0.17960
N    -0.05311  -2.08238   0.00097
N    -1.93935  -0.33284  -0.26727
N    -4.29693  -1.70143  -0.75252
N    -3.67442  -1.88269   0.39590
C     0.92726  -2.93550  -0.27883
C     0.71952  -4.30503  -0.29859
C    -0.54830  -4.79716  -0.03090
C    -1.56869  -3.90303   0.26316
C    -1.27570  -2.55099   0.28165
C    -2.29176  -1.44634   0.58414
C    -2.54160  -0.22694  -1.42948
C    -2.08095   0.70761  -2.40459
C    -2.72051   0.83239  -3.58881
C    -3.88749   0.06317  -3.90971
C    -4.53287   0.20042  -5.14385
C    -5.64987  -0.54807  -5.44173
C    -6.14885  -1.45771  -4.51363
C    -5.52814  -1.61419  -3.29326
C    -4.40077  -0.85658  -2.97183
C    -3.73762  -0.99591  -1.69689
C    -4.41153  -2.41870   1.45163
C    -3.79866  -2.87876   2.61761
C    -4.56961  -3.40921   3.63644
C    -5.94452  -3.50228   3.50890
C    -6.55359  -3.05650   2.34578
C    -5.79951  -2.51500   1.32602
H     1.89536  -2.49146  -0.47844
H     1.53752  -4.96914  -0.52555
H    -0.74598  -5.85780  -0.04954
H    -2.56866  -4.24858   0.47333
H    -2.16149  -1.11949   1.63293
H    -1.18796   1.28324  -2.16148
H    -2.35224   1.52128  -4.33472
H    -4.14233   0.90659  -5.86208
H    -6.14037  -0.43089  -6.39646
H    -7.02426  -2.04275  -4.75283
H    -5.90082  -2.31807  -2.56575
H    -2.72731  -2.84378   2.73973
H    -4.08463  -3.75788   4.53569
H    -6.53651  -3.91876   4.30885
H    -7.62532  -3.12409   2.23648
H    -6.26278  -2.15511   0.42191
O     1.64681   0.01217   0.10175
