48

Pd    0.00000   0.00000   0.00000
Cl   -1.17729  -0.65361   1.80668
N     1.00022   0.18798  -1.75604
N    -1.59794   0.18523  -1.32801
N    -2.27790   1.95578   0.74838
N    -1.07867   2.04232   0.32918
C     2.31962   0.20004  -1.92209
C     2.91359   0.12481  -3.16761
C     2.10033   0.02359  -4.29361
C     0.73309   0.02645  -4.13107
C     0.18836   0.11912  -2.84024
C    -1.22621   0.19903  -2.57993
C    -2.18226   0.46731  -3.70619
C    -2.86878   0.25877  -0.86536
C    -3.87360  -0.62934  -1.31937
C    -5.14857  -0.55510  -0.85523
C    -5.52922   0.42261   0.10140
C    -6.85098   0.52515   0.56676
C    -7.19164   1.46368   1.50703
C    -6.21957   2.32690   2.01973
C    -4.92108   2.24776   1.58144
C    -4.55084   1.30345   0.61369
C    -3.19464   1.20975   0.15139
C    -0.13574   2.56273   1.22091
C     1.14880   2.81179   0.71580
C     2.13425   3.29093   1.55517
C     1.85340   3.53238   2.89240
C     0.58019   3.30204   3.39046
C    -0.41724   2.82190   2.56588
H     2.90783   0.25501  -1.01303
H     3.98741   0.13420  -3.25428
H     2.53394  -0.05659  -5.27879
H     0.07909  -0.05873  -4.98331
H    -3.58525  -1.39473  -2.02588
H    -5.89567  -1.24934  -1.21069
H    -7.59532  -0.15145   0.17191
H    -8.21000   1.53489   1.85954
H    -6.49550   3.05672   2.76631
H    -4.16111   2.90624   1.97185
H     1.34588   2.63771  -0.33885
H     3.12733   3.47078   1.17166
H     2.63128   3.89395   3.54781
H     0.36855   3.48477   4.43338
H    -1.40682   2.61129   2.94135
H    -3.13402   0.81986  -3.31520
H    -1.77340   1.22435  -4.37319
H    -2.36239  -0.43743  -4.28671
O     1.36773  -0.40185   0.83087
