31

Pd    0.00000   0.00000   0.00000
Cl   -1.25196   1.42327   1.11589
N    -0.24566   0.94420  -1.82102
N     1.06911  -1.16167  -1.11367
N     1.78846  -2.26702  -0.84266
C    -0.94682   2.04085  -2.09576
H    -1.45598   2.49555  -1.25298
C    -1.02326   2.56915  -3.37169
C    -0.34501   1.93584  -4.41181
C     0.38416   0.79889  -4.13972
H     0.92385   0.27818  -4.91521
C     0.42191   0.31480  -2.82553
C     1.13388  -0.84116  -2.39807
C     1.99333  -1.83482  -3.11020
H     1.45212  -2.38479  -3.88320
H     2.87769  -1.38321  -3.56478
C     2.34455  -2.70856  -1.92737
C     3.18272  -3.87972  -1.94985
C     3.75773  -4.34596  -3.13553
C     4.55961  -5.47009  -3.11962
H     5.00185  -5.82702  -4.03789
C     4.79880  -6.14035  -1.92948
C     4.23085  -5.68500  -0.74830
C     3.42749  -4.56355  -0.75305
H     2.97467  -4.18938   0.15135
H    -1.60207   3.46009  -3.55108
H    -0.38978   2.33015  -5.41541
H     3.57689  -3.83126  -4.06763
H     5.42836  -7.01714  -1.92432
H     4.41778  -6.20832   0.17698
O     0.27671  -0.84907   1.38745
