58

Pt    0.00000   0.00000   0.00000
P     0.64619   2.20153   0.02819
Cl    2.19562  -0.49973   0.52063
P    -2.22250   0.29127  -0.49058
N     1.93682   2.44506   1.03297
H     2.52956   1.61300   1.08294
C     2.61123   3.70283   1.27655
H     1.88005   4.51479   1.17232
H     3.41438   3.88439   0.54600
C     3.19973   3.76590   2.65707
H     3.76409   4.66942   2.84877
C     3.06996   2.83842   3.58566
H     2.51455   1.93300   3.41224
H     3.52127   2.94677   4.55654
C     1.08997   2.71324  -1.67422
C     1.03895   1.73082  -2.65736
H     0.69144   0.73452  -2.38360
C     1.43286   2.01340  -3.95183
H     1.39032   1.24681  -4.71122
C     1.89211   3.28172  -4.26936
H     2.20546   3.50606  -5.27822
C     1.95811   4.26216  -3.29216
H     2.32350   5.24816  -3.54056
C     1.56064   3.98217  -1.99678
H     1.61128   4.75077  -1.23807
C    -0.47998   3.50511   0.62573
C    -1.12417   4.43066  -0.18593
H    -0.92004   4.45850  -1.24764
C    -2.01778   5.33282   0.36719
H    -2.51325   6.05276  -0.26781
C    -2.27622   5.31510   1.72745
H    -2.97541   6.01959   2.15277
C    -1.63549   4.39384   2.54243
H    -1.83444   4.37972   3.60379
C    -0.74617   3.49095   1.99287
H    -0.23947   2.76428   2.61277
C    -3.24935  -1.13861  -1.01723
H    -3.10965  -1.91484  -0.26168
H    -4.29977  -0.83218  -1.01855
C    -2.82186  -1.67509  -2.37714
H    -3.38149  -2.57593  -2.61915
H    -1.76381  -1.92881  -2.34836
H    -2.98914  -0.94408  -3.16574
C    -3.08162   0.87028   1.03301
H    -2.89678   1.94373   1.13252
H    -4.15842   0.70509   0.94350
C    -2.51959   0.12768   2.24103
H    -2.91821   0.53232   3.16909
H    -1.42826   0.22088   2.25731
H    -2.76196  -0.93145   2.18887
C    -2.60195   1.59152  -1.74560
H    -2.05117   2.48161  -1.43318
H    -2.16608   1.25828  -2.69172
C    -4.07540   1.93045  -1.92875
H    -4.17923   2.73094  -2.65907
H    -4.51509   2.26831  -0.99361
H    -4.63778   1.07342  -2.28977
O    -0.30883  -1.62058   0.02919
