49

Br   -0.56098   1.45941   1.70486
Mn    0.00000   0.00000   0.00000
P    -0.74269  -1.75348   1.24876
P     0.75859   1.75979  -1.23973
C    -1.27644  -0.45905  -1.51616
C    -0.86529  -1.27465  -2.58113
C    -1.67511  -1.42951  -3.70151
C    -2.90465  -0.80612  -3.80541
C    -3.32715  -0.03552  -2.73505
C    -2.54371   0.14085  -1.60173
C     0.44355  -2.02258  -2.57763
C    -3.77038  -0.96806  -5.01872
C    -3.12358   0.98439  -0.49530
C    -2.49559  -1.83087   1.77999
C     0.09357  -1.86280   2.87565
C    -0.51227  -3.47212   0.65362
C    -0.40290   3.09628  -1.71173
C     2.06440   2.73564  -0.40503
C     1.56448   1.44359  -2.85480
H    -1.32644  -2.05840  -4.51012
H    -4.29619   0.44405  -2.77858
H     0.59717  -2.54714  -1.63571
H     1.28739  -1.34796  -2.72739
H     0.45967  -2.75696  -3.38025
H    -3.25359  -1.53037  -5.79265
H    -4.04895   0.00542  -5.42077
H    -4.68828  -1.49661  -4.76150
H    -3.02930   0.48942   0.47024
H    -4.18018   1.17020  -0.67846
H    -2.62311   1.95106  -0.42715
H    -2.74720  -0.93357   2.34510
H    -2.64126  -2.70523   2.41427
H    -3.14051  -1.90535   0.90523
H    -0.08696  -0.94943   3.44276
H     1.16716  -1.98209   2.72758
H    -0.29625  -2.71833   3.42694
H     0.54539  -3.65597   0.46517
H    -1.07934  -3.62190  -0.26429
H    -0.86529  -4.16688   1.41574
H    -1.19321   2.68751  -2.34091
H     0.13610   3.86849  -2.26102
H    -0.84027   3.53458  -0.81461
H     2.92019   2.09468  -0.19044
H     1.67945   3.13822   0.53246
H     2.37599   3.55490  -1.05338
H     0.85274   0.97242  -3.53224
H     2.42333   0.78748  -2.71288
H     1.90251   2.38783  -3.28231
O     1.54002  -0.58596   0.08654
