69

Fe    0.00000   0.00000   0.00000
N     1.16533  -0.50659  -1.48985
N     2.01337  -0.47622   1.21839
N     0.22189   1.66726  -1.02728
C    -0.61019   2.73661  -0.65932
C     1.77545  -1.65218  -1.83340
C     1.53402  -2.89540  -1.09699
C     1.01051   1.70802  -2.06714
H     1.14559   2.60368  -2.66562
C    -0.13802   3.74757   0.19223
C     1.60875   0.47151  -2.34435
C     0.21680  -3.33042  -0.88840
C    -1.93084   2.75577  -1.13475
C     2.11343  -1.56311   1.97482
H     1.18554  -2.06325   2.21319
C    -2.44743   1.63462  -2.00672
H    -1.59825   1.00989  -2.30969
C    -1.00153   4.76978   0.55255
H    -0.66131   5.55310   1.21105
C     2.51105  -0.07846  -3.26578
H     3.00938   0.44106  -4.06160
C     3.32100  -2.04661   2.45090
H     3.34366  -2.93460   3.06239
C    -2.30170   4.80016   0.08189
H    -2.96077   5.60473   0.37291
C     2.61754  -1.41872  -2.93608
H     3.20292  -2.16107  -3.44428
C     2.60145  -3.63190  -0.56892
C    -2.76157   3.79713  -0.74975
H    -3.78204   3.82482  -1.09975
C     3.13360   0.16200   0.89715
H     3.01364   1.03148   0.26725
C     1.03887  -5.17703   0.42098
H     0.84750  -6.05669   1.01812
C     1.91545   5.01182   0.99743
H     1.45532   5.52455   1.83822
H     1.83522   5.64418   0.11588
H     2.96989   4.87477   1.22828
C     2.33716  -4.76441   0.18802
H     3.16259  -5.32737   0.60131
C     1.26191   3.65304   0.75060
H     1.87931   3.10894   0.02787
C     4.48406  -1.37063   2.12307
H     5.44471  -1.71485   2.47776
C    -0.94431  -2.61453  -1.51746
H    -1.24998  -1.74999  -0.91111
H    -1.80043  -3.28068  -1.59769
H    -0.67890  -2.25051  -2.50778
C    -0.01310  -4.46678  -0.12756
H    -1.02827  -4.80062   0.03396
C     1.20771   2.83407   2.04449
H     0.78952   1.84571   1.84557
H     0.58037   3.33439   2.77908
H     2.20475   2.71053   2.46201
C     4.02673  -3.22769  -0.80498
H     4.39417  -3.67797  -1.72733
H     4.66093  -3.57074   0.01022
H     4.11769  -2.14829  -0.89936
C     4.38653  -0.24193   1.32396
H     5.26501   0.31412   1.03562
C    -3.40296   0.75618  -1.19410
H    -4.26621   1.32891  -0.86310
H    -2.89209   0.36514  -0.31378
H    -3.75070  -0.08021  -1.79617
C    -3.12569   2.15807  -3.27314
H    -2.45923   2.82631  -3.81426
H    -4.03859   2.69898  -3.03749
H    -3.38402   1.32677  -3.92538
O    -0.85652  -0.44105   1.33953
