61

Rh    0.00000   0.00000   0.00000
P    -0.02233   2.29124   0.22522
C    -1.62186   3.15622  -0.06981
C     0.33816   2.98224   1.88264
C     1.12835   3.31624  -0.76431
P    -1.14817   0.00015  -2.06601
C    -2.99220   0.00018  -2.10877
C    -0.83515   1.37046  -3.25208
C    -1.77394   0.00012   1.16370
C     1.18224   0.00039   1.77631
N     0.50520   0.00015   2.82601
N    -0.11567   0.00016   3.78697
Si    3.05094   0.00016   2.07988
C     3.24883   0.00026   3.97884
C     3.98598   1.54175   1.43785
H    -2.33327   2.85586   0.69704
H    -2.03887   2.90627  -1.04234
H    -1.46700   4.23331  -0.01101
H    -0.31726   2.54116   2.63118
H     0.18805   4.06192   1.86052
H     1.36821   2.75973   2.15179
H     2.14704   3.05038  -0.48581
H     0.95451   4.37149  -0.55381
H     1.00878   3.12727  -1.82847
H    -3.33905   0.00023  -3.14169
H    -3.37686  -0.88359  -1.60242
H     0.21196   1.34774  -3.54966
H    -1.05671   2.33961  -2.81124
H    -1.46055   1.22745  -4.13355
H    -2.66237   0.00007   0.52985
H    -1.83801  -0.87222   1.81783
H     4.29814   0.00022   4.25288
H     2.78997  -0.87346   4.43004
H     3.97404   1.60144   0.35571
H     5.02631   1.48118   1.74378
H     3.58770   2.47109   1.83634
P    -0.02234  -2.29108   0.22521
C    -0.83520  -1.37018  -3.25209
H    -3.37682   0.88391  -1.60234
H    -1.83807   0.87249   1.81778
C     3.98606  -1.54142   1.43792
H     2.79008   0.87411   4.42991
C    -1.62192  -3.15594  -0.06983
C     0.33816  -2.98212   1.88260
C     1.12831  -3.31606  -0.76438
H     0.21189  -1.34747  -3.54971
H    -1.05676  -2.33933  -2.81126
H    -1.46063  -1.22715  -4.13354
H     3.97412  -1.60116   0.35579
H     5.02640  -1.48078   1.74384
H     3.58785  -2.47077   1.83645
H    -2.33330  -2.85558   0.69704
H    -2.03893  -2.90590  -1.04235
H    -1.46709  -4.23304  -0.01110
H    -0.31719  -2.54103   2.63119
H     0.18796  -4.06179   1.86043
H     1.36825  -2.75971   2.15171
H     2.14701  -3.05022  -0.48591
H     0.95443  -4.37130  -0.55386
H     1.00869  -3.12707  -1.82853
O     1.32029   0.00009  -0.98961
