60

Ta    0.00000   0.00000   0.00000
P    -0.73514  -2.91760   1.83628
Cl    1.30317   1.41166   1.30853
Cl    1.97251  -1.08488  -0.73638
Cl   -1.22522  -2.00496  -0.63909
C     0.03739   2.58414  -1.44739
C     0.71463   1.55645  -2.14943
C    -0.23272   0.54414  -2.48500
C    -1.50102   0.96306  -1.96785
C    -1.32352   2.22558  -1.34063
C     0.68928   3.81239  -0.91763
C     2.14276   1.61160  -2.57922
C    -0.00185  -0.55557  -3.47382
C    -2.83526   0.34850  -2.24347
C    -2.43183   3.02217  -0.74502
C     0.33324  -1.47842   1.78906
C    -2.54338  -2.68574   1.89659
C    -0.37555  -3.53185   3.52561
C     0.46882  -4.60826   3.76404
C     0.76146  -4.98759   5.06298
C     0.22414  -4.28907   6.13048
C    -0.60329  -3.20127   5.89908
C    -0.89831  -2.82212   4.60345
C    -0.27311  -4.34599   0.82394
C    -1.04173  -5.49727   0.95461
C    -0.71230  -6.62780   0.23009
C     0.38511  -6.61117  -0.61611
C     1.15119  -5.46339  -0.73980
C     0.82736  -4.32558  -0.02166
H     1.42179   4.19758  -1.62474
H     1.21219   3.57413   0.01373
H    -0.03952   4.59042  -0.70513
H     2.76180   2.04101  -1.79260
H     2.24690   2.23009  -3.47282
H     2.51801   0.61764  -2.81029
H    -0.76974  -1.32113  -3.39228
H     0.96517  -1.02666  -3.30386
H    -0.01575  -0.15828  -4.48989
H    -3.45866   0.38448  -1.35078
H    -2.73706  -0.68798  -2.55412
H    -3.34436   0.89817  -3.03723
H    -2.09637   4.01251  -0.44943
H    -2.82394   2.51711   0.14072
H    -3.25197   3.12309  -1.45599
H     0.15611  -0.95616   2.73619
H     1.35634  -1.87188   1.81984
H    -2.99243  -3.20069   1.04982
H    -2.76120  -1.61906   1.81700
H    -2.93241  -3.08410   2.83176
H     0.89527  -5.15214   2.93342
H     1.41415  -5.82939   5.24044
H     0.45457  -4.58659   7.14237
H    -1.01389  -2.64688   6.72986
H    -1.53199  -1.96439   4.42045
H    -1.88936  -5.50349   1.62623
H    -1.31061  -7.52177   0.32548
H     0.64062  -7.49456  -1.18212
H     2.00288  -5.44948  -1.40270
H     1.40555  -3.42034  -0.14030
O    -1.29333   0.37636   0.95297
