60

Pd    0.00000   0.00000   0.00000
I     1.09392   0.50612  -2.32704
N     1.80884  -0.17878   0.82902
C    -1.78040   0.22881  -0.78654
C    -2.88458   6.02979  -1.42611
H    -3.43726   6.88259  -1.06072
N    -2.35762   1.43997  -0.79024
C    -1.06982  -4.09111  -1.19203
H    -0.22272  -4.48024  -0.61586
C    -1.25615  -2.60949  -0.85957
H    -1.45897  -2.50106   0.21480
H    -0.31876  -2.08222  -1.12712
C    -1.46529   3.84137  -2.35390
H    -0.90493   2.99198  -2.71596
N    -2.63558  -0.61647  -1.38721
C    -1.78087   2.62641  -0.18698
H    -2.23643   2.78476   0.79894
H    -0.69409   2.43214  -0.04234
C    -2.43331  -2.04325  -1.66524
C    -1.66067   4.93719  -3.17390
H    -1.25393   4.93551  -4.17380
C    -2.69444   4.93156  -0.60531
H    -3.09817   4.93006   0.39748
C    -3.69744  -2.82323  -1.28219
H    -3.89354  -2.69642  -0.21463
H    -4.56196  -2.44722  -1.83055
C    -0.78510  -4.24574  -2.68520
H     0.12578  -3.70523  -2.95232
H    -0.63195  -5.29920  -2.92676
C    -2.37062   6.03289  -2.71144
H    -2.52151   6.88942  -3.35142
C     2.36333  -1.37156   1.01409
H     1.79087  -2.23371   0.67151
C    -3.50801  -4.30355  -1.61540
H    -4.42228  -4.84535  -1.35059
C    -1.98222   3.83222  -1.06369
C    -2.14769  -2.21122  -3.16290
H    -2.97512  -1.80096  -3.74639
H    -1.24515  -1.65488  -3.42751
C    -1.96575  -3.69439  -3.48219
H    -1.76861  -3.80578  -4.55328
C    -2.33259  -4.86374  -0.81965
H    -2.20060  -5.92372  -1.04454
H    -2.52702  -4.76951   0.25098
C    -3.74778   0.08761  -1.78655
H    -4.56600  -0.35950  -2.30918
C    -3.23661  -4.45856  -3.11188
H    -3.11783  -5.51545  -3.35783
H    -4.08299  -4.07577  -3.68692
C    -3.57794   1.37254  -1.40445
H    -4.20843   2.22914  -1.52305
C     2.45305   0.91118   1.23345
H     1.95450   1.86626   1.05954
C     3.60016  -1.52297   1.61469
H     4.01837  -2.50799   1.74740
C     3.69218   0.85023   1.84428
H     4.18326   1.75682   2.15980
C     4.27893  -0.39088   2.03852
H     5.24518  -0.47413   2.51197
O    -0.69781  -0.11413   1.49082
