20

Au    0.00000   0.00000   0.00000
S     0.05195   2.27821   0.51029
S    -0.94844   0.73700   2.88413
N    -0.69269   3.29333   2.86784
C    -0.51703   2.21608   2.08263
C    -0.41229   4.63943   2.43811
H    -0.09218   4.61532   1.39881
H     0.38178   5.06906   3.05031
H    -1.31089   5.25088   2.52628
C    -1.16930   3.00323   4.13122
C    -1.44157   3.90497   5.15334
H    -1.28464   4.96215   5.01404
C    -1.91779   3.41269   6.35405
H    -2.13400   4.10017   7.15676
C    -2.12227   2.05054   6.54541
H    -2.49512   1.69422   7.49251
C    -1.85269   1.14502   5.53514
H    -2.00561   0.08689   5.67064
C    -1.37618   1.63397   4.33233
O    -0.08244  -1.63045  -0.23947
