70

Pt    0.00000   0.00000   0.00000
Cl   -1.78357  -0.95236  -1.10986
P     2.46685  -0.35984  -1.52077
P     1.88194   0.79138   1.02763
N     0.97549  -0.04182  -1.93865
C     3.21301   0.78750  -0.27110
H     3.28639   1.77892  -0.72685
H     4.18331   0.46524   0.10869
C     0.46664   1.04959  -2.76226
H    -0.57593   0.77531  -2.97681
C     1.19961   1.17202  -4.09144
H     2.25798   1.38245  -3.94452
H     0.75694   1.97224  -4.68023
H     1.11486   0.23814  -4.64318
C     0.45691   2.31912  -1.93396
C    -0.62839   2.55134  -1.08501
H    -1.51173   1.92517  -1.15189
C    -0.62508   3.63305  -0.21816
H    -1.46827   3.79697   0.43525
C     0.45248   4.50263  -0.19590
H     0.45900   5.34373   0.48103
C     1.51832   4.29517  -1.05278
H     2.35332   4.98184  -1.05331
C     1.52397   3.20706  -1.91125
H     2.36475   3.06439  -2.57745
C     3.66547  -0.53734  -2.87410
C     4.78485   0.26330  -3.05140
H     5.00797   1.05454  -2.34928
C     5.61521   0.04529  -4.13736
H     6.48670   0.66728  -4.27974
C     5.33069  -0.96576  -5.04046
H     5.98198  -1.12927  -5.88579
C     4.21326  -1.76757  -4.86262
H     3.99429  -2.55573  -5.56725
C     3.38183  -1.55397  -3.78046
H     2.50095  -2.16267  -3.61951
C     2.45304  -1.97652  -0.71910
C     1.30123  -2.75547  -0.72070
H     0.41257  -2.40300  -1.22973
C     1.30816  -3.98196  -0.07863
H     0.41129  -4.58238  -0.06496
C     2.45930  -4.43314   0.54696
H     2.45888  -5.38628   1.05439
C     3.61783  -3.67295   0.51308
H     4.51868  -4.03434   0.98646
C     3.61905  -2.44660  -0.12464
H     4.52381  -1.85346  -0.16384
C     2.58531  -0.35144   2.25816
C     1.90666  -1.52292   2.56845
H     0.95198  -1.72963   2.10158
C     2.44946  -2.41774   3.47262
H     1.91742  -3.32558   3.71230
C     3.66815  -2.14512   4.06970
H     4.09337  -2.84296   4.77575
C     4.34182  -0.97034   3.77197
H     5.28722  -0.75304   4.24770
C     3.80276  -0.07147   2.87190
H     4.31866   0.85415   2.65268
C     2.07958   2.40461   1.84786
C     1.05682   2.80559   2.70372
H     0.19972   2.16367   2.84767
C     1.13533   4.01978   3.35970
H     0.33548   4.32327   4.01777
C     2.23224   4.84370   3.16881
H     2.29282   5.79517   3.67621
C     3.25490   4.44554   2.32441
H     4.11463   5.08354   2.17691
C     3.18304   3.23188   1.66484
H     3.99378   2.94080   1.01190
O    -0.90430   0.06040   1.37880
