70

Pd    0.00000   0.00000   0.00000
Cl   -0.51286  -0.45630  -2.17035
P    -1.96223  -0.85234   1.89082
P     0.67893   0.16516   2.14694
N    -2.08024  -0.09215   0.51256
C    -0.84442  -0.11157   3.17369
H    -0.67773  -0.74639   4.04496
H    -1.26868   0.85206   3.47177
C    -3.57842  -1.08690   2.68277
C    -3.91853  -0.66564   3.96029
H    -3.18557  -0.18322   4.59131
C    -5.20691  -0.86830   4.42516
H    -5.47627  -0.54047   5.41850
C    -6.14970  -1.48684   3.62073
H    -7.15264  -1.63998   3.99006
C    -5.81100  -1.90713   2.34318
H    -6.54797  -2.38768   1.71742
C    -4.52745  -1.70584   1.87445
H    -4.23482  -2.01490   0.87871
C    -1.29706  -2.49461   1.55682
C    -1.06910  -2.90756   0.24646
H    -1.32498  -2.25317  -0.58497
C    -0.53973  -4.16717   0.01789
H    -0.35060  -4.48876  -0.99517
C    -0.25300  -5.00735   1.08261
H     0.16617  -5.98564   0.89968
C    -0.51577  -4.60592   2.38305
H    -0.30836  -5.27001   3.20900
C    -1.04255  -3.35049   2.62326
H    -1.26057  -3.03247   3.63494
C     1.64421  -1.32529   2.55454
C     1.92733  -2.24307   1.54779
H     1.61251  -2.04118   0.52198
C     2.62023  -3.40213   1.84817
H     2.84316  -4.11118   1.06531
C     3.03101  -3.64858   3.14740
H     3.57179  -4.55377   3.38116
C     2.75991  -2.73020   4.14962
H     3.09110  -2.91858   5.16063
C     2.07169  -1.56800   3.85664
H     1.87389  -0.84110   4.63369
C     1.57655   1.48619   3.01008
C     2.62841   2.07978   2.31627
H     2.85441   1.73636   1.31496
C     3.35671   3.09734   2.90319
H     4.16998   3.55632   2.36127
C     3.04057   3.53078   4.18078
H     3.60602   4.32889   4.63893
C     1.99566   2.94152   4.87267
H     1.74911   3.27774   5.86971
C     1.26233   1.92168   4.29301
H     0.44894   1.47342   4.84640
C    -2.78870   1.18768   0.37980
H    -3.62215   1.21922   1.10263
C    -3.35493   1.28093  -1.03566
H    -2.59951   0.97846  -1.75882
H    -3.68102   2.29699  -1.24419
H    -4.20159   0.60595  -1.13565
C    -1.81489   2.29900   0.71366
C    -0.78633   2.64003  -0.17575
H    -0.78471   2.26023  -1.19997
C     0.19051   3.54765   0.21352
H     0.98360   3.80279  -0.47422
C     0.14557   4.13300   1.46966
H     0.91140   4.83228   1.77041
C    -0.89101   3.83023   2.33415
H    -0.94334   4.30151   3.30537
C    -1.85987   2.91312   1.95841
H    -2.67301   2.67691   2.63609
O     1.56339   0.25853  -0.45986
