69

Ta    0.00000   0.00000   0.00000
Cl    2.16414   0.39097   0.66558
N    -0.66100   1.45037   1.18354
C     0.66895  -3.73109   0.01957
C     0.65212  -2.82131   1.02684
C    -0.66227  -2.13266   1.02973
C    -1.40848  -2.77395  -0.08108
C    -0.61156  -3.70096  -0.66929
C    -2.02174   2.00926   1.06842
C    -2.49213   1.68266  -0.32677
H    -3.40997   2.16091  -0.65338
C    -1.78276   0.83744  -1.07302
C    -2.20942   0.54801  -2.44644
C    -1.33814   0.77780  -3.51131
H    -0.35393   1.17901  -3.30998
C    -1.72606   0.50628  -4.80914
H    -1.04060   0.68952  -5.62392
C    -2.98839  -0.00244  -5.06953
H    -3.28677  -0.22340  -6.08385
C    -3.86789  -0.21959  -4.02272
H    -4.85774  -0.60668  -4.21948
C    -3.48619   0.06093  -2.72362
H    -4.17781  -0.10212  -1.90947
C     0.23927   2.30534   1.87795
C     0.47050   2.16961   3.24945
C     1.34983   3.03484   3.88927
H     1.51646   2.91762   4.95051
C     2.00718   4.02425   3.18847
H     2.68379   4.69542   3.69565
C     1.80958   4.13229   1.82397
H     2.34641   4.88344   1.26268
C     0.94244   3.28366   1.15291
C     1.78313  -4.63558  -0.38119
H     2.64978  -4.49586   0.25902
H     2.07336  -4.43464  -1.41266
H     1.47005  -5.67800  -0.32085
C     1.70398  -2.59557   2.06843
H     2.69655  -2.57570   1.62137
H     1.68595  -3.40139   2.80551
H     1.54862  -1.65116   2.58756
C    -1.36772  -2.14123   2.37132
H    -0.76538  -1.67381   3.14623
H    -1.53471  -3.17978   2.66520
H    -2.34004  -1.65642   2.32509
C    -2.83184  -2.45170  -0.41170
H    -2.97661  -2.41404  -1.48971
H    -3.11344  -1.48485   0.00212
H    -3.50129  -3.21310  -0.00620
C    -0.91716  -4.55576  -1.85019
H    -1.95106  -4.43641  -2.16125
H    -0.73712  -5.60572  -1.62144
H    -0.26990  -4.27938  -2.68326
C    -2.98310   1.30468   2.04670
H    -2.74761   1.56773   3.07323
H    -2.90994   0.22887   1.91817
H    -4.00508   1.61172   1.83643
C    -2.13545   3.51831   1.33278
H    -1.81037   3.75803   2.34229
H    -3.17616   3.81571   1.22553
H    -1.54256   4.09648   0.63253
C    -0.18906   1.08673   4.05099
H     0.56173   0.53331   4.61373
H    -0.71876   0.40654   3.39218
H    -0.89128   1.51166   4.76861
C     0.84761   3.38949  -0.34475
H    -0.12264   3.07880  -0.72766
H     1.61057   2.75120  -0.79808
H     1.04286   4.41302  -0.65955
O     0.51279  -0.75010  -1.37728
