66

Ta    0.00000   0.00000   0.00000
Cl    0.96450  -1.45803   1.41941
Si   -2.81035  -0.84390   2.64310
N     0.79972   0.63288  -1.71543
C    -2.85765   0.33540   1.18216
C    -3.83238   0.49367   0.24015
H    -4.73622  -0.08457   0.16500
C    -3.47724   1.55055  -0.65148
H    -4.07798   1.87859  -1.48200
C    -2.27636   2.05740  -0.26691
H    -1.76807   2.91614  -0.67341
C    -1.78307   1.29141   0.87315
H    -1.38100   1.85657   1.71216
C     1.16705   1.78599   0.55956
C     1.76691   2.40676  -0.45800
H     2.38047   3.29612  -0.36200
C     1.61755   1.84637  -1.84483
C     0.78667  -0.21610  -2.85275
C     1.72119  -1.26023  -2.95865
C     1.73704  -2.04821  -4.10235
H     2.46700  -2.84091  -4.18103
C     0.82945  -1.84238  -5.12318
H     0.86174  -2.45357  -6.01254
C    -0.14948  -0.87992  -4.97230
H    -0.90509  -0.75435  -5.73424
C    -0.19952  -0.07485  -3.84164
C    -1.36022   0.86165  -3.68012
H    -1.42715   1.21940  -2.65547
H    -2.27934   0.32907  -3.91913
H    -1.28501   1.71038  -4.35852
C     2.66442  -1.61712  -1.84295
H     3.66211  -1.80489  -2.23649
H     2.31817  -2.53785  -1.36826
H     2.72492  -0.84407  -1.07889
C     3.01358   1.59347  -2.44288
H     2.93709   1.07851  -3.39704
H     3.62537   1.00538  -1.76598
H     3.50833   2.54803  -2.60287
C     0.91723   2.90082  -2.72180
H     0.86208   2.55600  -3.75002
H     1.48334   3.82860  -2.69510
H    -0.08289   3.09209  -2.34633
C     1.26285   2.38162   1.90269
C     0.85543   3.69657   2.12922
H     0.49169   4.28155   1.29690
C     0.89560   4.23996   3.39988
H     0.56877   5.25740   3.55981
C     1.35551   3.48544   4.46626
H     1.38771   3.91037   5.45857
C     1.77483   2.18229   4.25296
H     2.13896   1.59070   5.08046
C     1.72188   1.63281   2.98581
H     2.05344   0.61696   2.81885
C    -1.49488  -0.21577   3.88227
H    -1.74922   0.77082   4.25919
H    -0.50675  -0.14611   3.43461
H    -1.41945  -0.87939   4.73840
C    -4.51689  -0.83075   3.49715
H    -4.79191   0.16945   3.81456
H    -4.51964  -1.46914   4.37453
H    -5.29335  -1.18734   2.82891
C    -2.43466  -2.64454   2.11755
H    -3.14282  -2.98327   1.36652
H    -2.50213  -3.32421   2.96246
H    -1.43995  -2.74758   1.69350
O    -1.01405  -1.03918  -0.78379
