59

Pd    0.00000   0.00000   0.00000
P     0.82303  -1.11936   1.71166
N    -0.92701   1.09853  -1.53638
H    -0.23074   1.65137  -2.04069
H    -1.54629   0.59051  -2.16804
C    -1.62643   1.87933  -0.56663
C    -1.34541   3.23205  -0.41545
H    -0.55576   3.68092  -1.00277
C    -2.05642   3.99573   0.49652
C    -3.07192   3.42150   1.23971
C    -3.35332   2.07210   1.10063
C    -2.63698   1.27776   0.21425
C    -2.85090  -0.18370   0.13851
C    -4.13147  -0.72590   0.17165
C    -4.30717  -2.09755   0.15275
C    -3.20489  -2.93205   0.10115
C    -1.92555  -2.39598   0.06453
H    -1.07398  -3.06828   0.03756
C    -1.72615  -1.02349   0.08478
C     2.07404  -0.37425   2.80007
C     1.81472  -0.00880   4.11573
C     2.81101   0.58254   4.87330
H     2.60854   0.86491   5.89638
C     4.05980   0.81685   4.32289
C     4.31855   0.45786   3.00904
C     3.33094  -0.13587   2.24764
H     3.51636  -0.40334   1.21598
C     1.69768  -2.59162   1.10873
C     1.71556  -2.79707  -0.26862
C     2.39087  -3.88210  -0.79783
C     3.05194  -4.76096   0.04588
C     3.05358  -4.54734   1.41564
C     2.38474  -3.46092   1.95025
H     2.40429  -3.27308   3.01544
C    -0.49254  -1.65185   2.84602
C    -1.40137  -0.64625   3.17442
H    -1.23894   0.35487   2.77672
C    -2.49306  -0.92786   3.96963
C    -2.69268  -2.22165   4.42929
C    -1.79883  -3.22375   4.09542
H    -1.96378  -4.23222   4.44585
C    -0.69611  -2.94385   3.30440
H    -0.00973  -3.73215   3.03144
H    -1.81821   5.04176   0.61546
H    -3.63421   4.01848   1.94191
H    -4.11992   1.61370   1.70830
H    -4.99046  -0.06926   0.19611
H    -5.30381  -2.51397   0.18010
H    -3.33839  -4.00474   0.09442
H     0.83872  -0.18711   4.54587
H     4.83145   1.28409   4.91701
H     5.28967   0.64796   2.57682
H     1.20133  -2.07571  -0.91779
H     2.40857  -4.04243  -1.86573
H     3.57853  -5.60931  -0.36573
H     3.58458  -5.22631   2.06681
H    -3.19571  -0.14801   4.22337
H    -3.55328  -2.44907   5.04080
O     1.31728   0.96889  -0.22027
