58

Cd    0.00000   0.00000   0.00000
Br   -0.12740  -1.15136   2.24910
N     1.63125   1.67573   0.62196
N     2.87223   1.30644   0.97701
C     1.61301   3.00140   0.59328
C     2.88026   3.49314   0.94035
H     3.17684   4.51933   1.01133
C     3.66363   2.38393   1.17944
C     3.18924  -0.09152   1.09546
H     4.23661  -0.18332   1.42108
H     2.53614  -0.53216   1.85796
N     2.93716  -0.74767  -0.17756
C     2.65301  -2.16429  -0.06107
H     3.56375  -2.77967  -0.12962
H     2.16694  -2.34818   0.90518
N     1.75302  -2.59163  -1.10173
N     0.56020  -1.99363  -1.24501
C     1.90864  -3.59210  -1.99862
C     0.75401  -3.62402  -2.75159
H     0.52603  -4.29424  -3.55472
C    -0.06406  -2.60410  -2.24326
C     0.39670   3.77721   0.24269
H     0.19163   3.70332  -0.82547
H     0.53259   4.82329   0.50285
H    -0.47118   3.38527   0.77307
C     5.08396   2.29791   1.60737
H     5.16313   1.84037   2.59345
H     5.50281   3.29887   1.65826
H     5.67758   1.71015   0.90707
C     3.12227  -4.44472  -2.08360
H     3.00410  -5.15379  -2.89807
H     3.27194  -5.00272  -1.15952
H     4.01253  -3.84497  -2.27422
C    -1.42412  -2.21413  -2.69329
H    -1.85380  -2.99993  -3.30860
H    -1.38465  -1.29340  -3.27618
H    -2.07198  -2.03544  -1.83479
C     3.96318  -0.43178  -1.16845
H     4.34056   0.57048  -0.95018
H     4.80715  -1.13821  -1.07834
C     3.45074  -0.42407  -2.61263
H     3.00513  -1.39389  -2.84823
C     2.39415   0.65941  -2.82020
H     1.56300   0.50552  -2.12569
H     2.83306   1.63839  -2.60919
C     1.87585   0.63151  -4.25353
H     1.11803   1.40470  -4.38520
H     1.40348  -0.33455  -4.44759
C     3.02474   0.84369  -5.23444
H     2.65431   0.79615  -6.25984
H     3.45437   1.83605  -5.07977
C     4.10573  -0.21307  -5.02533
H     4.93870  -0.03640  -5.70890
H     3.69376  -1.20025  -5.24835
C     4.60980  -0.19211  -3.58447
H     5.37415  -0.96222  -3.44866
H     5.07125   0.77593  -3.37472
O    -1.02283   0.81430  -1.00659
