66

Ir    0.00000   0.00000   0.00000
N    -1.11009  -0.62482  -2.57389
C    -0.78301  -1.19833  -1.40025
N    -1.23095  -2.46964  -1.47387
C    -1.76027  -1.51330  -3.37932
H    -2.11357  -1.27466  -4.36075
N     2.26979   0.94194   1.46477
C    -1.84579  -2.67000  -2.68504
H    -2.29453  -3.59906  -2.96607
C    -0.73827   0.75060  -2.85764
N     0.73860   2.14860   2.37092
C    -0.36906   1.40484  -1.50932
H    -1.23764   1.97195  -1.16199
H     0.44967   2.11082  -1.66492
C     0.44560   0.73406  -3.83025
H     0.74659   1.75020  -4.06771
H     0.17401   0.22755  -4.75460
H     1.28398   0.21297  -3.37902
C    -1.92730   1.48040  -3.49115
H    -2.14761   1.09451  -4.48426
H    -1.69913   2.53891  -3.57997
H    -2.80815   1.36455  -2.86461
C    -1.20004  -3.47639  -0.41658
C    -0.13824  -3.10593   0.61611
H     0.84857  -3.11240   0.15923
H    -0.15340  -3.82211   1.43454
H    -0.34607  -2.11499   1.03132
C    -0.84267  -4.83975  -1.02218
H    -1.65560  -5.24011  -1.62217
H    -0.63985  -5.54862  -0.22355
H     0.04588  -4.75813  -1.64561
C    -2.58228  -3.51949   0.24098
H    -2.81587  -2.54283   0.66080
H    -2.60055  -4.25914   1.03709
H    -3.34824  -3.77268  -0.48914
C     0.94144   1.20371   1.41642
C     2.88230   1.67181   2.43608
H     3.92788   1.61311   2.65473
C     1.92001   2.43087   3.00518
H     2.01504   3.13464   3.80265
C     2.89297  -0.05879   0.61285
C     1.97732  -0.22905  -0.60777
H     2.18265  -1.20721  -1.05522
H     2.28959   0.51380  -1.34618
C     3.01443  -1.35182   1.42868
H     3.64698  -1.19519   2.30189
H     3.45213  -2.14097   0.82277
H     2.03250  -1.67229   1.77039
C     4.28745   0.41244   0.18504
H     4.99310   0.39994   1.01370
H     4.23600   1.42095  -0.21928
H     4.66614  -0.25028  -0.58894
C    -0.53510   2.76333   2.76181
C    -0.28317   4.03846   3.57472
H     0.38176   4.71688   3.04359
H     0.12958   3.82010   4.55731
H    -1.23242   4.54586   3.72598
C    -1.32827   3.13442   1.51184
H    -0.72099   3.73438   0.83848
H    -2.21316   3.69935   1.79114
H    -1.64690   2.23507   1.00045
C    -1.31202   1.75957   3.61678
H    -0.70800   1.42327   4.45839
H    -1.59677   0.90144   3.01409
H    -2.21811   2.22106   3.99930
O    -1.52637  -0.08044   0.62147
