29

I    -0.96510   1.57985  -2.01098
Cd    0.00000   0.00000   0.00000
S     2.84458   0.41560  -0.41288
N    -1.01050   0.99747   2.09574
N     0.96268   2.29979   0.83335
N     1.78015   2.81953  -0.08706
N     3.29388   2.61248  -1.80125
C    -1.78270   0.28782   2.90292
C    -2.35235   0.80730   4.05611
C    -2.09065   2.12816   4.38074
C    -1.28503   2.87661   3.54033
C    -0.75946   2.27796   2.39574
C     0.10136   3.01187   1.45844
C     2.61853   2.01056  -0.80896
C     4.13362   1.88118  -2.71879
C    -0.09669   4.48370   1.23755
H    -1.95542  -0.74286   2.61715
H    -2.97833   0.18943   4.67897
H    -2.50477   2.57074   5.27424
H    -1.04605   3.89975   3.78364
H     1.63766   3.77838  -0.40681
H     2.98932   3.52602  -2.10793
H    -0.29429   4.66814   0.17923
H    -0.94838   4.85296   1.79766
H     0.79116   5.04550   1.53021
H     4.85386   2.56456  -3.16182
H     4.65711   1.10061  -2.16980
H     3.54142   1.41283  -3.50943
O    -0.24411  -1.59067   0.36425
