31

Hf    0.00000   0.00000   0.00000
Cl    1.99434   1.03202   0.53742
N    -4.11412   0.20305   1.47420
B    -2.81777   0.15697   1.02816
C    -1.65703  -0.79081   1.52237
C    -0.55945  -0.36500   2.32602
H    -0.59207   0.43065   3.06057
C     0.50352  -1.28901   2.16831
H     1.41683  -1.30422   2.74599
C     0.10290  -2.25766   1.23341
H     0.65488  -3.14736   0.96550
C    -1.21086  -1.94005   0.80774
H    -1.82921  -2.56111   0.17091
C    -2.15405   1.01951  -0.11432
C    -1.23143   2.08169   0.11364
H    -1.22394   2.72982   0.98169
C    -0.47848   2.29019  -1.06870
H     0.20655   3.10747  -1.24434
C    -0.88137   1.33402  -2.01550
H    -0.55993   1.28688  -3.04631
C    -1.88780   0.52938  -1.42569
H    -2.46955  -0.22389  -1.94320
C    -5.11485   1.10577   0.94563
H    -4.67600   1.72087   0.16469
H    -5.49834   1.75269   1.73852
H    -5.95235   0.54090   0.52878
C    -4.63261  -0.64725   2.52503
H    -3.84511  -1.30337   2.88582
H    -5.45971  -1.25381   2.14788
H    -5.00268  -0.04097   3.35549
O     0.72096  -0.88276  -1.19308
