38

Hf    0.00000   0.00000   0.00000
B    -0.08752   0.14821  -2.98860
Cl    0.05128   1.71002   1.55223
N    -0.12646   0.39170  -4.33677
C     1.05109   0.57819  -5.16381
H     1.02128  -0.13670  -5.99488
H     1.93800   0.37982  -4.56115
C     1.08600   2.00259  -5.71881
H     1.96787   2.12841  -6.34766
H     1.15689   2.70449  -4.88590
C    -0.18473   2.28148  -6.51715
H    -0.21233   1.63167  -7.39504
H    -0.19186   3.31543  -6.86529
C    -1.40825   2.01001  -5.64583
H    -1.42633   2.71239  -4.81051
H    -2.32457   2.14089  -6.22221
C    -1.34939   0.58544  -5.09324
H    -2.20054   0.39258  -4.43939
H    -1.37290  -0.12967  -5.92433
C     1.70087   1.13512  -1.31774
H     1.62831   2.17763  -1.60338
C     2.48778   0.63232  -0.25236
H     3.10385   1.22345   0.41025
C     2.43582  -0.77061  -0.29782
H     3.01001  -1.44657   0.31974
C     1.60851  -1.14448  -1.38615
H     1.47081  -2.15700  -1.74617
C     1.18675   0.03678  -2.06501
C    -1.30587   0.04443  -1.99158
C    -1.69432  -1.13433  -1.28893
H    -1.58418  -2.14761  -1.65628
C    -2.45378  -0.75561  -0.15384
H    -2.99480  -1.42814   0.49652
C    -2.49427   0.64760  -0.10558
H    -3.06654   1.24237   0.59212
C    -1.76830   1.14577  -1.21548
H    -1.70619   2.18791  -1.50495
O     0.03159  -1.14595   1.18671
