56

Rh    0.00000   0.00000   0.00000
C     0.65505  -0.25049  -1.87151
N     0.16896   0.21318  -3.05304
C    -0.95746   0.99015  -3.28602
C    -1.83370   1.34276  -2.26198
C    -2.93167   2.13171  -2.52972
C    -3.17830   2.57998  -3.82321
C    -2.33620   2.21279  -4.84808
C    -1.21834   1.40644  -4.60790
C    -0.36228   0.97769  -5.67825
C     0.68239   0.15940  -5.43966
C     0.96142  -0.24165  -4.10602
C     1.93322  -1.01869  -3.54363
N     1.72004  -1.00835  -2.19559
C     2.50420  -1.77213  -1.24940
C     2.59844  -3.21054  -1.68612
C     1.44552  -3.98614  -1.72467
C     1.50937  -5.29893  -2.15417
C     2.72041  -5.84668  -2.54550
C     3.87070  -5.07811  -2.50484
C     3.80943  -3.76187  -2.07972
C     1.65767   1.20533   0.51851
C     0.58100   2.03853   0.20348
C    -0.21873   2.79148   1.24691
C    -1.44198   1.99798   1.74825
C    -1.25456   0.49911   1.67628
C    -0.15307  -0.17641   2.15848
C     0.98840   0.50611   2.87951
C     2.12861   0.90555   1.92438
H     2.45868   1.13232  -0.21878
H     0.60237   2.52048  -0.77393
H    -2.18392  -0.05896   1.55556
H    -0.25852  -1.24209   2.36155
H    -1.65302   0.96230  -1.25388
H    -3.60822   2.39578  -1.73124
H    -4.03732   3.20204  -4.02450
H    -2.53278   2.53673  -5.85969
H    -0.59370   1.31178  -6.67796
H     1.32797  -0.20204  -6.22403
H     2.73213  -1.56760  -3.99696
H     1.98428  -1.69932  -0.28032
H     3.50358  -1.33056  -1.16207
H     0.50508  -3.55647  -1.40976
H     0.61093  -5.89696  -2.18061
H     2.76901  -6.87263  -2.87991
H     4.81763  -5.50168  -2.80673
H     4.71011  -3.16338  -2.04992
H     0.43787   3.04354   2.08155
H    -0.56534   3.73309   0.81573
H    -1.67410   2.28128   2.78104
H    -2.31060   2.26349   1.14039
H     0.60424   1.38444   3.40058
H     1.38586  -0.17087   3.63863
H     2.66196   1.77765   2.32044
H     2.85033   0.08582   1.87111
O    -0.84138  -1.39536  -0.25990
