27

Pd    0.00000   0.00000   0.00000
S     0.93730   1.79614   1.08559
N    -0.75948  -1.84177  -0.53908
N     0.30125  -0.94121   1.66248
N     0.85909  -0.36256   2.72380
N     1.76938   1.57575   3.55701
C    -1.28496  -2.22635  -1.69287
C    -1.75677  -3.51348  -1.89744
C    -1.67198  -4.42705  -0.85377
C    -1.12423  -4.02977   0.34982
C    -0.66571  -2.71467   0.49646
C    -0.07759  -2.19566   1.70948
C     1.19139   0.90110   2.55691
C     2.05132   1.03662   4.86080
C     0.08728  -3.03805   2.93717
H    -1.32386  -1.47085  -2.46999
H    -2.17858  -3.79037  -2.84940
H    -2.03007  -5.43770  -0.98032
H    -1.04637  -4.71976   1.17387
H     1.98012   2.54634   3.38027
H    -0.87480  -3.42620   3.26814
H     0.51521  -2.42583   3.72579
H     0.75057  -3.87913   2.73944
H     1.42376   1.51013   5.61984
H     3.09945   1.20060   5.11649
H     1.84460  -0.02990   4.83789
O    -0.29136   0.73440  -1.44854
