56

Pd    0.00000   0.00000   0.00000
S    -1.23933   0.89928  -1.74007
S    -4.47712  -2.34415   0.62887
P     1.89212   1.13392  -0.33641
N    -1.68109  -1.07239   0.37367
N    -3.63079  -0.02718  -2.34843
H    -4.49608  -0.48962  -2.12872
H    -3.62748   0.73162  -3.00649
N    -2.72501  -0.95099  -0.47223
C    -3.09965  -2.50009   1.68315
C    -2.61875  -0.11655  -1.46029
C     3.19511  -0.10424  -0.58159
C     2.11233   2.27667  -1.73813
C    -4.68950  -3.81653   2.72644
H    -5.09380  -4.47334   3.47712
C    -3.37274  -3.32297   2.76370
C     1.31184   2.33626   2.05819
H     0.40225   1.72862   1.99224
C     2.27024   2.23539   1.05342
C     1.31700   4.25995  -2.83798
H     0.62514   5.08743  -2.89243
C     2.29791   4.10899  -3.80687
H     2.37064   4.82108  -4.61567
C    -2.38828  -3.64281   3.83821
H    -1.49109  -4.09537   3.41807
H    -2.82596  -4.33354   4.55421
H    -2.08717  -2.73813   4.36559
C     3.61427   3.87831   2.16940
H     4.50462   4.48871   2.21177
C    -1.88109  -1.83223   1.40988
H    -1.05023  -1.95891   2.09463
C     3.41133   3.03014   1.09620
H     4.12498   2.99351   0.28432
C     2.67458   3.95251   3.18580
H     2.84024   4.61510   4.02247
C     1.22318   3.34609  -1.80763
H     0.45354   3.43862  -1.04972
C    -5.39508  -3.37784   1.64680
H    -6.41058  -3.61067   1.39305
C     3.17948   3.04343  -3.74342
H     3.93989   2.92512  -4.50169
C     3.08980   2.12355  -2.71230
H     3.77495   1.28822  -2.66518
C     2.77062  -1.21230  -1.31701
H     1.72890  -1.25432  -1.66320
C     3.64600  -2.24778  -1.57668
H     3.31880  -3.10772  -2.14224
C     4.48980  -0.05164  -0.08742
H     4.80898   0.78553   0.51535
C     1.51810   3.19154   3.12519
H     0.77966   3.26670   3.90952
C     5.36066  -1.09772  -0.34610
H     6.36702  -1.06442   0.04515
C     4.94488  -2.18683  -1.09256
H     5.62895  -2.99989  -1.28581
O     0.88330  -0.71164   1.19827
