60

W     0.00000   0.00000   0.00000
C    -0.51547   3.29210   0.86734
H    -0.02527   4.19418   0.49586
H    -0.48702   3.30172   1.95791
H    -1.56464   3.29621   0.57045
C     0.16309   2.07007   0.37166
C     1.32584   1.70603  -0.09822
C     2.65779   2.30175  -0.37013
H     3.23649   1.73012  -1.09583
H     3.22913   2.33483   0.55981
H     2.54325   3.32344  -0.73704
C    -0.25457  -0.65571   3.37441
H     0.08444  -1.52884   3.93458
H    -1.34365  -0.65259   3.32540
H     0.05585   0.24296   3.90958
C     0.33583  -0.63695   2.01397
C     1.35725  -1.05330   1.33785
C     2.60209  -1.84644   1.44889
H     2.73811  -2.18944   2.47589
H     3.46947  -1.25313   1.15881
H     2.55846  -2.71291   0.78718
C     1.66986  -0.42189  -0.93466
O     2.73310  -0.58477  -1.34626
B    -1.68824  -1.96503  -3.39154
C    -2.10763  -2.39103  -1.85017
H    -2.56839  -3.37838  -1.82723
H    -2.80579  -1.67950  -1.40566
S    -0.69351  -2.49183  -0.70278
C    -1.51937  -3.14366   0.79067
H    -2.37237  -2.52054   1.05025
H    -0.78912  -3.15313   1.59649
H    -1.84776  -4.15703   0.57279
C    -0.57719  -0.74851  -3.35615
H    -0.47091  -0.33004  -4.35550
H     0.40699  -1.07046  -3.00348
S    -1.10202   0.64863  -2.30570
C    -0.04339   1.96807  -2.97807
H     0.99649   1.65091  -2.98195
H    -0.17311   2.85702  -2.36615
H    -0.38340   2.16160  -3.99313
C    -3.08157  -1.43486  -4.09646
H    -3.75352  -0.97470  -3.36831
H    -3.61920  -2.25192  -4.58014
S    -2.85934  -0.15574  -5.38504
C    -4.59529   0.08599  -5.85087
H    -4.99708  -0.84593  -6.24151
H    -4.62382   0.85449  -6.61680
H    -5.16034   0.40542  -4.97843
C    -0.99903  -3.17005  -4.21904
C    -0.86333  -3.07431  -5.60414
H    -1.24388  -2.19646  -6.10625
C    -0.25796  -4.06572  -6.35399
H    -0.17324  -3.95649  -7.42707
C     0.24190  -5.19806  -5.73392
H     0.71589  -5.97783  -6.31439
C     0.12717  -5.31861  -4.36107
H     0.51472  -6.19746  -3.86177
C    -0.48182  -4.31803  -3.62323
H    -0.54785  -4.44390  -2.55100
O    -1.58038   0.14855   0.45036
