36

Au    0.00000   0.00000   0.00000
P    -0.68845   0.54271  -2.07555
C    -1.68596   2.05361  -2.15211
C    -1.20161   3.14952  -1.43948
C    -1.91009   4.33507  -1.42752
C    -3.11243   4.42645  -2.11263
C    -3.60295   3.33365  -2.80819
C    -2.89524   2.14423  -2.83114
C     0.66252   0.83466  -3.24882
C     1.59517  -0.19417  -3.37078
C     2.67818  -0.04980  -4.21498
C     2.84307   1.12725  -4.92978
C     1.92388   2.15509  -4.80070
C     0.83197   2.01567  -3.96128
C    -1.70200  -0.71047  -2.90493
C    -2.51513  -1.50782  -2.10468
C    -3.31834  -2.47427  -2.68092
C    -3.30509  -2.65237  -4.05515
C    -2.49192  -1.86309  -4.85350
C    -1.68948  -0.89098  -4.28489
H    -0.26714   3.05875  -0.89865
H    -1.53130   5.18435  -0.87892
H    -3.67055   5.35040  -2.09864
H    -4.54318   3.40561  -3.33467
H    -3.28016   1.29024  -3.37110
H     1.45916  -1.10370  -2.79807
H     3.39773  -0.84899  -4.31076
H     3.69301   1.24448  -5.58503
H     2.05713   3.07246  -5.35456
H     0.11521   2.81895  -3.86060
H    -2.50734  -1.36529  -1.03093
H    -3.94849  -3.09200  -2.05895
H    -3.92697  -3.41139  -4.50541
H    -2.48222  -2.00633  -5.92390
H    -1.05278  -0.27399  -4.90439
O     0.50316  -0.40032   1.51956
