60

Ru    0.00000   0.00000   0.00000
O     0.09708   1.61883  -1.21614
O     0.59905   6.23852   1.64639
N     0.53069   1.20035   2.57463
N     0.32114   1.38180   1.35730
C     0.47153   3.81258   1.63673
H     0.56505   3.68818   2.70272
C     0.33218  -0.03869   3.16038
C     0.32926   2.65830   0.85288
C     1.40835  -0.74688   3.71891
C     0.19263   2.71838  -0.55992
C     0.20766   3.99719  -1.16488
H     0.10443   4.06248  -2.23606
C    -0.45530  -2.74317   0.03525
C     0.43160  -2.03471   0.87187
C    -1.42507  -3.79760   0.41764
H    -1.42420  -4.59647  -0.32251
H    -1.17926  -4.19695   1.39875
H    -2.43069  -3.37694   0.45699
C     0.33988   5.11526  -0.39055
H     0.34338   6.09709  -0.83743
C     1.49464  -1.31696   0.55869
C    -0.96385  -0.55262   3.23746
H    -1.77944   0.00982   2.80273
C     0.81188  -1.48647  -1.63098
C     1.14591  -1.95020   4.36157
H     1.96812  -2.49972   4.79663
C    -1.19618  -1.74907   3.88954
H    -2.20243  -2.13577   3.94969
C    -0.15653  -2.25017  -1.23539
C     1.83123  -0.96640  -0.80965
C     0.47355   5.04207   1.01436
C     2.78856  -0.27797   3.52055
C    -0.14247  -2.44564   4.45738
H    -0.32255  -3.37928   4.96957
C     3.76463  -1.17262   3.08713
H     3.49792  -2.20534   2.91295
C     0.72384   6.23901   3.04874
H     0.80090   7.28572   3.33771
H    -0.15289   5.79305   3.52832
H     1.62436   5.70591   3.36971
C     3.15030  -0.37344  -1.21329
H     3.10111  -0.09383  -2.27099
C     3.13708   1.05565   3.71689
H     2.38762   1.75083   4.06220
C     4.24326  -1.42993  -1.01966
H     4.02155  -2.32100  -1.60329
H     5.20588  -1.03599  -1.33639
H     4.30627  -1.70699   0.03064
C     5.05747  -0.74137   2.85148
H     5.80471  -1.44305   2.50913
C     5.39438   0.58740   3.04793
H     6.40321   0.92404   2.86031
C     4.43133   1.48270   3.48407
H     4.69145   2.51933   3.64186
C     3.45000   0.87100  -0.37574
H     4.42775   1.27297  -0.63107
H     2.70258   1.64245  -0.56066
H     3.44490   0.62197   0.68455
O    -1.62915   0.25292   0.06624
