47

Fe    0.00000   0.00000   0.00000
Cl    1.48008  -1.53378   0.42297
N    -0.56562   0.06811   1.82965
N    -1.27255   1.34651  -0.28764
N     1.37015   1.26652   0.18831
N     0.56507  -0.11416  -1.82756
C    -0.18237  -0.63320   2.88387
H     0.67020  -1.27928   2.73248
C    -0.83728  -0.56270   4.11349
H    -0.47755  -1.16665   4.93140
C    -1.93062   0.26114   4.27171
H    -2.45359   0.32733   5.21399
C    -2.36675   1.01413   3.17048
C    -3.47937   1.90269   3.17832
H    -4.03666   2.01004   4.09741
C    -3.83678   2.59889   2.06871
H    -4.68192   3.27119   2.09052
C    -3.12132   2.46545   0.84414
C    -3.43067   3.14706  -0.34225
H    -4.26649   3.82874  -0.37691
C    -2.64655   2.91494  -1.45424
H    -2.85135   3.41641  -2.38720
C    -1.58950   2.01386  -1.38921
H    -0.98496   1.81417  -2.26090
C    -2.02574   1.58099   0.80979
C    -1.64501   0.86869   1.96914
C     1.73670   1.99320   1.23557
H     1.11753   1.91122   2.11599
C     2.86052   2.81208   1.23643
H     3.10259   3.36923   2.12795
C     3.66169   2.89291   0.11535
H     4.54817   3.50809   0.10192
C     3.30118   2.14532  -1.01556
C     4.02590   2.12516  -2.24177
H     4.92168   2.72487  -2.31031
C     3.61536   1.37409  -3.29582
H     4.18018   1.36439  -4.21655
C     2.43578   0.57955  -3.22618
C     1.94143  -0.21974  -4.26861
H     2.46839  -0.26879  -5.20971
C     0.78560  -0.93901  -4.05439
H     0.37897  -1.57392  -4.82555
C     0.12700  -0.86188  -2.82713
H    -0.77414  -1.42484  -2.63153
C     1.70450   0.58549  -2.02184
C     2.13979   1.35436  -0.91917
O    -1.20743  -1.09962  -0.23546
