69

C     1.18639  -2.23538   1.99606
H     2.13876  -1.81129   1.70815
C     1.13926  -3.37905   2.77243
H     2.05222  -3.84490   3.10588
C    -0.10052  -3.91360   3.08764
H    -0.18157  -4.81600   3.67455
C    -1.23421  -3.27749   2.61868
H    -2.21346  -3.68577   2.81219
C    -1.09796  -2.11934   1.85417
C    -2.27745  -1.44301   1.29022
C    -3.20950  -0.35258  -0.49896
C    -4.44165  -0.27997   0.14131
H    -5.26529   0.17256  -0.38643
C    -4.59379  -0.80141   1.42208
C    -3.48191  -1.43148   1.98020
H    -3.53667  -1.85525   2.97066
C    -3.12242   0.10854  -1.89491
C    -2.38944  -0.60481  -2.83985
H    -1.86633  -1.50448  -2.56334
C    -2.36268  -0.13649  -4.14259
H    -1.79246  -0.66080  -4.89492
C    -3.07373   1.01060  -4.45561
H    -3.07096   1.41609  -5.45527
C    -3.80622   1.62363  -3.44813
H    -4.39601   2.51022  -3.64348
C    -5.86754  -0.71293   2.13850
C    -6.30997  -1.76254   2.94476
H    -5.71685  -2.66196   3.02760
C    -7.51547  -1.68293   3.60679
H    -7.85790  -2.50407   4.21935
C    -8.31013  -0.53914   3.48837
C    -7.86593   0.51793   2.68854
H    -8.47477   1.40547   2.59945
C    -6.66516   0.42650   2.01978
H    -6.32412   1.25408   1.41539
C    -9.54420  -0.45664   4.16130
C   -10.60818  -0.39070   4.73106
C   -11.84954  -0.31659   5.39247
C   -12.28936  -1.36962   6.19334
H   -11.66734  -2.24555   6.30672
C   -13.50799  -1.30600   6.84086
H   -13.81892  -2.13820   7.45290
C   -14.31494  -0.18024   6.69819
C   -13.87563   0.87829   5.89679
H   -14.51394   1.74219   5.79866
C   -12.66288   0.81341   5.25331
H   -12.32995   1.63387   4.63518
C   -16.03553  -1.03879   8.10159
H   -16.17181  -1.96868   7.53997
H   -17.00412  -0.68609   8.45214
H   -15.38608  -1.22524   8.96306
C    -0.25467   1.46448  -1.42766
H     0.42672   2.30899  -1.31984
H    -1.27488   1.85021  -1.36739
H    -0.10005   1.02985  -2.41781
C     1.89768   0.76706   0.22697
H     2.42423   0.75641  -0.72855
H     2.42945   0.11599   0.92581
H     1.91616   1.78165   0.62322
C    -0.66828   1.37688   1.39145
H    -0.34851   1.04797   2.38401
H    -1.75996   1.41907   1.38162
H    -0.30285   2.39025   1.23894
N     0.10153  -1.61697   1.55273
N    -2.12623  -0.87037   0.08728
N    -3.84011   1.18722  -2.20448
O   -15.52916  -0.01115   7.28501
Pt    0.00000   0.00000   0.00000
O     0.56248  -1.17292  -1.01507
