60

Zr    0.00000   0.00000   0.00000
Cl    1.68451   1.61336  -0.16348
Si    0.00006  -3.28272   0.00021
C    -0.21191  -1.98676  -1.37180
C    -1.38441  -1.20391  -1.62853
C    -1.03385  -0.02669  -2.31448
H    -1.73524   0.69443  -2.71583
C     0.37607  -0.03023  -2.51750
C     1.23653   0.88865  -3.16058
C     2.57188   0.57644  -3.22483
H     3.25527   1.26289  -3.70340
C     3.09627  -0.61602  -2.68404
C     2.27173  -1.51340  -2.04383
H     2.67469  -2.44735  -1.67986
C     0.89373  -1.24138  -1.92795
C    -2.81033  -1.55166  -1.30288
H    -2.95173  -2.62863  -1.26296
H    -3.46922  -1.14866  -2.07193
H    -3.11168  -1.11042  -0.34688
C     0.67404   2.16777  -3.70146
H     1.45716   2.78109  -4.13874
H     0.20078   2.72679  -2.89088
H    -0.08160   1.96593  -4.46045
C     4.56872  -0.87439  -2.80627
H     4.82347  -1.86992  -2.45047
H     5.12519  -0.14290  -2.22030
H     4.88828  -0.78148  -3.84295
C    -1.45757  -4.49413   0.25451
H    -1.31505  -5.04239   1.18005
H    -1.47451  -5.21876  -0.55309
H    -2.43495  -4.03204   0.29795
C     0.21205  -1.98664   1.37212
C     1.38452  -1.20374   1.62875
C     1.03392  -0.02632   2.31438
H     1.73533   0.69466   2.71598
C    -0.37600  -0.02997   2.51754
C    -1.23647   0.88880   3.16076
C    -2.57181   0.57649   3.22515
H    -3.25516   1.26282   3.70394
C    -3.09616  -0.61603   2.68448
C    -2.27158  -1.51340   2.04429
H    -2.67452  -2.44736   1.68032
C    -0.89360  -1.24128   1.92826
C     2.81046  -1.55164   1.30339
H     2.95176  -2.62862   1.26341
H     3.46927  -1.14878   2.07260
H     3.11201  -1.11035   0.34747
C    -0.67396   2.16780   3.70192
H    -1.45707   2.78106   4.13930
H    -0.20068   2.72695   2.89144
H     0.08167   1.96584   4.46089
C    -4.56865  -0.87440   2.80665
H    -4.82291  -1.87067   2.45231
H    -5.12484  -0.14389   2.21909
H    -4.88844  -0.77977   3.84317
C     1.45767  -4.49415  -0.25404
H     1.31517  -5.04231  -1.17965
H     1.47455  -5.21887   0.55348
H     2.43507  -4.03208  -0.29740
O    -1.18821   1.13871   0.11838
