60

Hf    0.00000   0.00000   0.00000
Cl    1.65722   1.60007  -0.23655
Si   -0.00002  -3.23005   0.00003
C    -0.15269  -1.93126  -1.37427
C    -1.30693  -1.11012  -1.63121
C    -0.91840   0.03033  -2.36436
H    -1.59652   0.75770  -2.78830
C     0.48113  -0.05033  -2.61197
C     1.35738   0.78334  -3.33899
C     2.67106   0.39575  -3.44123
H     3.36504   1.01712  -3.98831
C     3.15566  -0.79711  -2.87023
C     2.31138  -1.61705  -2.15705
H     2.67198  -2.56027  -1.77419
C     0.96208  -1.25424  -1.98848
C    -2.73856  -1.42721  -1.29909
H    -3.00632  -2.41569  -1.67123
H    -3.39353  -0.69605  -1.77019
H    -2.92414  -1.39511  -0.22311
C     0.84278   2.04759  -3.95455
H     1.63739   2.57530  -4.47471
H     0.44029   2.69838  -3.17776
H     0.04234   1.83068  -4.66127
C     4.60161  -1.15012  -3.05210
H     4.82032  -2.13169  -2.63798
H     5.23155  -0.41376  -2.55314
H     4.86429  -1.15063  -4.10901
C    -1.49273  -4.40725   0.14086
H    -1.48050  -4.90530   1.10463
H    -1.41976  -5.17513  -0.62224
H    -2.45528  -3.92635   0.02698
C     0.15269  -1.93124   1.37431
C     1.30693  -1.11009   1.63122
C     0.91842   0.03037   2.36434
H     1.59654   0.75775   2.78825
C    -0.48110  -0.05030   2.61199
C    -1.35734   0.78335   3.33907
C    -2.67101   0.39574   3.44136
H    -3.36498   1.01710   3.98846
C    -3.15562  -0.79711   2.87036
C    -2.31136  -1.61703   2.15713
H    -2.67196  -2.56027   1.77431
C    -0.96207  -1.25420   1.98852
C     2.73856  -1.42721   1.29910
H     3.00630  -2.41568   1.67128
H     3.39353  -0.69603   1.77017
H     2.92414  -1.39514   0.22311
C    -0.84273   2.04760   3.95463
H    -1.63733   2.57528   4.47484
H    -0.44028   2.69841   3.17784
H    -0.04226   1.83067   4.66132
C    -4.60155  -1.15015   3.05228
H    -4.82031  -2.13165   2.63807
H    -5.23155  -0.41374   2.55347
H    -4.86417  -1.15079   4.10919
C     1.49267  -4.40728  -0.14075
H     1.48040  -4.90544  -1.10446
H     1.41973  -5.17508   0.62244
H     2.45523  -3.92638  -0.02696
O    -1.18097   1.13990   0.16866
