23

Au    0.00000   0.00000   0.00000
N     1.78725  -0.83289  -0.52698
C     2.88649  -0.78746   0.21581
H     2.78996  -0.26452   1.15894
F    -3.17551  -1.19900  -4.18886
C     2.94715  -2.06235  -2.18847
H     2.94703  -2.56078  -3.14366
C     4.09619  -2.02037  -1.42237
H     5.00270  -2.48765  -1.77605
C     4.06882  -1.37099  -0.19531
H     4.94240  -1.31545   0.43257
Cl   -2.01174   0.83642   0.39914
C     0.50891  -1.42375  -2.41975
C     0.29005  -2.00935  -3.66874
H     1.08987  -2.52491  -4.17652
C    -0.94958  -1.93654  -4.26893
H    -1.13544  -2.38346  -5.23260
C    -1.97038  -1.27212  -3.60916
C    -1.78280  -0.68096  -2.36776
H    -2.60310  -0.17236  -1.88564
C    -0.54351  -0.75555  -1.77041
C     1.78108  -1.45547  -1.72206
O     0.58869   0.56533   1.43399
