34

Zn    0.00000   0.00000   0.00000
N     1.41395   1.45254  -0.50848
N    -0.54683   0.38713  -2.05275
Cl    0.71990  -2.05588   0.09537
N     1.55306   3.32236  -1.66457
C     2.31298   3.47923  -0.50623
C     0.11879   1.67528  -3.94441
H     0.75885   2.42609  -4.37810
C     0.17364   1.39086  -2.57675
O     3.84748   2.68966   1.85359
C     1.02619   2.06941  -1.62884
C    -1.34466  -0.32396  -2.82984
H    -1.88730  -1.12189  -2.34291
C     2.19319   2.27757   0.19342
C    -1.48577  -0.07786  -4.18603
H    -2.15594  -0.67443  -4.78267
C     2.74247   1.88530   1.51859
H     1.94278   1.99293   2.27249
H     3.02229   0.81994   1.48668
C     1.38471   4.36897  -2.52318
H     0.71268   4.22846  -3.35268
C     2.02102   5.54491  -2.28955
H     1.88050   6.36518  -2.97463
C    -0.72550   0.93535  -4.75096
H    -0.77939   1.13871  -5.81001
C     2.85257   5.71007  -1.15656
H     3.35467   6.65092  -1.00160
C     2.98505   4.68778  -0.26426
H     3.58124   4.75659   0.62970
C     4.38909   2.36004   3.11008
H     3.65209   2.50388   3.90882
H     5.23369   3.02772   3.26756
H     4.73487   1.32031   3.13231
O    -0.89071   0.95397   1.00949
