59

C    -0.27574   2.21844  -1.85818
C     0.69308   3.08734  -1.13827
H     0.89661   2.61937  -0.16099
H     0.22888   4.06435  -0.98274
C     1.98859   3.23970  -1.93551
H     2.67419   3.89303  -1.40318
H     1.78264   3.66763  -2.91355
H     2.45757   2.26566  -2.05823
C    -0.93601   0.77291  -4.65935
C     0.15860   1.57360  -5.35306
H    -0.22401   2.54090  -5.66907
H     0.50146   1.02601  -6.22679
H     1.00818   1.73014  -4.69237
C    -2.07508   0.48404  -5.64007
H    -2.87479  -0.06298  -5.14953
H    -1.70782  -0.10138  -6.47846
H    -2.48228   1.41911  -6.01387
C    -0.39912  -0.52248  -4.02395
H    -0.36967  -1.34071  -4.73931
H     0.60779  -0.36247  -3.63037
C    -1.35903  -0.79019  -2.86777
H    -0.88800  -1.35983  -2.04766
H    -2.25677  -1.31299  -3.19592
C    -1.71185   0.62534  -2.39573
H    -2.72752   0.69479  -1.97837
N    -0.76930   1.12857  -1.41264
N    -1.56004   1.53057  -3.54508
O    -0.72458   2.58665  -3.05742
Cl   -1.91812   0.21309   1.22527
Pd    0.00000   0.00000   0.00000
C     0.27558  -2.21829   1.85837
C    -0.69318  -3.08720   1.13840
H    -0.89673  -2.61921   0.16113
H    -0.22896  -4.06420   0.98282
C    -1.98872  -3.23966   1.93558
H    -2.67434  -3.89288   1.40314
H    -1.78276  -3.66773   2.91355
H    -2.45764  -2.26562   2.05844
C     0.93583  -0.77279   4.65955
C    -0.15877  -1.57353   5.35323
H     0.22383  -2.54083   5.66924
H    -0.50161  -1.02592   6.22695
H    -1.00835  -1.73004   4.69253
C     2.07496  -0.48388   5.64019
H     2.87465   0.06317   5.14966
H     1.70769   0.10149   6.47860
H     2.48218  -1.41896   6.01395
C     0.39904   0.52259   4.02405
H     0.36963   1.34080   4.73941
H    -0.60790   0.36261   3.63054
C     1.35888   0.79043   2.86785
H     0.88785   1.36005   2.04772
H     2.25664   1.31320   3.19598
C     1.71165  -0.62515   2.39593
H     2.72732  -0.69458   1.97856
N     0.76913  -1.12841   1.41284
N     1.55986  -1.53041   3.54527
O     0.72440  -2.58650   3.05761
O     1.38443  -0.15362  -0.88445
