26

Ti    0.00000   0.00000   0.00000
Cl    1.86138   0.25640   1.03415
Cl   -1.18373  -0.84763   1.73980
Cl    0.43848   1.34623  -1.73157
O    -0.77863   1.74672   0.86148
O    -1.95105   0.08795  -0.74359
C    -1.86588   2.26756   1.03851
C    -2.99288   2.11758   0.01159
C    -2.99171   0.68872  -0.54286
C    -2.10349   3.09455   2.25994
C    -2.57576   3.01242  -1.18485
C    -4.35632   2.55546   0.54363
C    -4.29827   0.04418  -0.87607
H    -2.43679   4.09637   2.00079
H    -1.17706   3.15000   2.82798
H    -2.86991   2.62659   2.87478
H    -3.31249   2.93177  -1.98041
H    -1.60111   2.70594  -1.57052
H    -2.52058   4.05055  -0.86620
H    -5.10766   2.49051  -0.23751
H    -4.32151   3.59072   0.86934
H    -4.67092   1.93813   1.38073
H    -4.87989   0.66200  -1.55582
H    -4.87749  -0.10389   0.03335
H    -4.10241  -0.92301  -1.33467
O     0.28332  -1.43123  -0.77058
