35

Ti    0.00000   0.00000   0.00000
Cl   -2.12624  -0.00087  -0.78272
Cl    0.68450  -1.64546  -1.20320
O    -0.83285  -1.28411   1.34987
O    -1.75734  -2.67627   2.79990
C    -0.87103  -0.70372   3.69368
C    -0.57715  -1.37989   4.87742
C    -0.26535  -0.69243   6.03634
C    -1.15718  -1.54719   2.50198
C    -2.00434  -3.59103   1.71117
C    -3.19255  -3.15664   0.86713
H    -0.58170  -2.45836   4.87418
H    -0.02353  -1.23800   6.93521
H    -1.10161  -3.65325   1.09244
H    -2.19351  -4.54549   2.20594
H    -2.98017  -2.22128   0.34889
H    -3.39528  -3.92163   0.12363
H    -4.07366  -3.02876   1.49153
Cl    0.68433   1.64484  -1.20404
O    -0.83337   1.28376   1.34994
C    -0.87110   0.70329   3.69370
C    -0.26536   0.69193   6.03635
C    -1.15750   1.54678   2.50207
C    -0.57718   1.37941   4.87744
H    -0.02359   1.23748   6.93525
O    -1.75752   2.67590   2.80004
H    -0.58183   2.45788   4.87426
C    -2.00437   3.59061   1.71123
C    -3.19252   3.15622   0.86711
H    -1.10160   3.65269   1.09256
H    -2.19348   4.54511   2.20595
H    -2.98012   2.22086   0.34890
H    -3.39514   3.92119   0.12355
H    -4.07368   3.02840   1.49142
O     1.24662  -0.00121   1.08094
