47

W     0.00000   0.00000   0.00000
Br   -1.62492   1.97825   0.39965
P     0.71222   1.10844  -2.11874
H     0.33883   2.45682  -2.15070
H    -0.06806   0.77023  -3.23077
P    -1.38922  -0.77072   1.92618
H    -1.44593  -2.13971   2.23788
H    -2.74045  -0.71764   1.57837
N     2.79422   1.56879  -4.19434
N    -2.53337   0.50115   4.35837
O     2.27352  -0.80108   2.05052
O     2.07320  -2.27098  -0.65065
O     2.20330   1.98808   1.09896
C     1.46659  -0.39130   1.28360
C     1.25985  -1.46582  -0.46216
C     1.42321   1.17368   0.75008
B     2.56040   1.06707  -2.66066
H     3.15970   1.80068  -1.94218
H     2.95485  -0.05303  -2.59483
B    -1.13367   0.12361   3.62821
H    -0.54759   1.14288   3.43967
H    -0.53270  -0.61507   4.34203
C     2.16066   2.86737  -4.43305
H     2.49506   3.57986  -3.68153
H     1.07803   2.77126  -4.36411
H     2.41761   3.24549  -5.42521
C     2.26717   0.59107  -5.15020
H     1.19914   0.45308  -4.99265
H     2.76000  -0.36705  -5.00243
H     2.43441   0.92604  -6.17611
C     4.23915   1.70009  -4.40787
H     4.45225   1.98870  -5.43934
H     4.72666   0.75267  -4.19092
H     4.64282   2.45192  -3.73410
C    -3.33717  -0.69881   4.59826
H    -4.26009  -0.44661   5.12514
H    -2.76705  -1.40773   5.19566
H    -3.59190  -1.17124   3.65054
C    -2.21332   1.12336   5.64676
H    -3.12662   1.39735   6.17874
H    -1.61495   2.01543   5.47926
H    -1.63456   0.43312   6.25630
C    -3.31079   1.45773   3.56341
H    -3.58600   1.02703   2.60332
H    -2.71441   2.34374   3.35982
H    -4.21973   1.74658   4.09389
O    -1.18420  -0.68854  -0.91982
