49

Br   -1.26104  -1.74319   1.16885
C    -0.40541   3.42804  -0.25267
H    -0.21661   3.35436   0.81097
C    -0.20853   4.62425  -0.92324
H     0.13046   5.49720  -0.38992
C    -0.42903   4.65229  -2.29182
H    -0.25569   5.55419  -2.85979
C    -0.86977   3.50442  -2.92229
H    -1.03859   3.48752  -3.98725
C    -1.07649   2.34836  -2.16528
C    -1.56142   1.11208  -2.76585
C    -1.96276   1.03406  -4.18523
C    -2.93579   1.88494  -4.70337
H    -3.38400   2.63415  -4.06696
C    -3.34615   1.75137  -6.01716
H    -4.10378   2.41262  -6.41075
C    -2.79349   0.77076  -6.82455
H    -3.11557   0.66991  -7.85001
C    -1.83014  -0.08268  -6.31298
H    -1.39749  -0.84943  -6.93826
C    -1.41939   0.04349  -4.99890
H    -0.65834  -0.61366  -4.60113
C     1.75205  -2.00072  -2.26317
H     2.46341  -1.23833  -1.97532
C     2.18197  -3.19530  -2.81734
H     3.23523  -3.37772  -2.95600
C     1.23007  -4.13294  -3.18709
H     1.52334  -5.07560  -3.62498
C    -0.10624  -3.83659  -2.99485
H    -0.87991  -4.52916  -3.28602
C    -0.45218  -2.61070  -2.42323
C    -1.86581  -2.23488  -2.25348
C    -2.90848  -3.26620  -2.18936
C    -2.72498  -4.41635  -1.42534
H    -1.81334  -4.54572  -0.86197
C    -3.72932  -5.36332  -1.34997
H    -3.58554  -6.24744  -0.74751
C    -4.91824  -5.17639  -2.03593
H    -5.69837  -5.92073  -1.97821
C    -5.11000  -4.02799  -2.78706
H    -6.03972  -3.87577  -3.31503
C    -4.11390  -3.07296  -2.85985
H    -4.25313  -2.17394  -3.44211
Hg    0.00000   0.00000   0.00000
N    -0.81707   2.32044  -0.84848
N    -1.62928   0.07252  -2.00391
N    -2.24955  -1.01879  -2.19650
N     0.47269  -1.70978  -2.06757
O     1.52213   0.63406  -0.06003
