49

C    -1.12846   2.06589   2.18886
H    -0.45896   1.49903   2.82542
C    -2.19337   2.77160   2.71690
H    -2.38083   2.75890   3.77849
C    -3.01248   3.48084   1.84830
H    -3.86186   4.03442   2.22032
C    -2.71712   3.47657   0.49991
H    -3.31209   4.03665  -0.20437
C    -1.61899   2.74108   0.04523
C    -1.19393   2.84857  -1.36082
C    -2.19382   3.01202  -2.41902
C    -3.42921   2.37140  -2.32806
H    -3.64071   1.73680  -1.48080
C    -4.35811   2.50830  -3.34254
H    -5.30883   2.00161  -3.26833
C    -4.07014   3.28362  -4.45400
H    -4.80012   3.39146  -5.24246
C    -2.83860   3.91138  -4.55749
H    -2.60855   4.50870  -5.42745
C    -1.90292   3.77314  -3.55097
H    -0.94061   4.25745  -3.62283
C     1.37868  -0.75645  -2.80318
H     0.47859  -1.35338  -2.89431
C     2.51972  -1.06614  -3.51941
H     2.53357  -1.92049  -4.17682
C     3.63918  -0.25985  -3.36079
H     4.55375  -0.47603  -3.89288
C     3.56139   0.83155  -2.51922
H     4.39941   1.49838  -2.38981
C     2.36887   1.07984  -1.83378
C     2.21169   2.32153  -1.05760
C     3.35710   2.89172  -0.34418
C     4.30488   2.05886   0.25000
H     4.18223   0.98773   0.19794
C     5.36874   2.60329   0.94470
H     6.09343   1.95119   1.40907
C     5.50225   3.97806   1.05392
H     6.33669   4.39952   1.59456
C     4.55617   4.81139   0.47780
H     4.65313   5.88307   0.56995
C     3.48697   4.27419  -0.21215
H     2.74453   4.91499  -0.66360
Cl    1.80600  -0.45846   1.31631
Hg    0.00000   0.00000   0.00000
N    -0.84891   2.03973   0.88790
N     0.04347   2.86148  -1.70549
N     1.10497   2.97301  -1.02176
N     1.30190   0.28165  -1.97388
O    -1.46856  -0.49618  -0.56536
