29

Pt    0.00000   0.00000   0.00000
Cl    1.57647   0.12833  -1.67700
O    -0.88839   1.59236  -0.86445
O    -1.07398   3.79657  -0.72242
O    -1.30336  -0.05786   1.64510
O    -1.63757  -1.22621   3.50018
N     0.98428   1.53483   1.04250
N     0.74419  -1.62805   0.92101
C     1.92340   1.44466   1.97589
H     2.32307   0.45983   2.17953
C     2.37831   2.56175   2.65389
H     3.14191   2.45595   3.40766
C     1.83722   3.80413   2.34762
H     2.17212   4.69002   2.86526
C     0.86436   3.88396   1.36688
H     0.39979   4.81106   1.06820
C     0.45933   2.71747   0.73319
C    -0.60425   2.73960  -0.37641
C     1.71355  -2.41839   0.46565
H     2.24593  -2.07294  -0.41206
C     2.01116  -3.62032   1.08419
H     2.79850  -4.24066   0.68742
C     1.27991  -4.01184   2.19783
H     1.48585  -4.95046   2.68900
C     0.27590  -3.17831   2.66139
H    -0.33657  -3.41262   3.51853
C     0.02834  -1.99105   1.98963
C    -1.08341  -1.02992   2.44389
O    -0.88414  -1.11431  -0.83614
