29

Pd    0.00000   0.00000   0.00000
S    -3.57584  -1.88625   1.90663
S     0.10566  -1.79194  -1.75075
N    -0.73934   1.01842   1.70545
C    -0.22017   2.13106   2.20506
H     0.63346   2.55211   1.68454
C    -0.73350   2.74560   3.33631
H    -0.27945   3.64967   3.70705
C    -1.83172   2.17884   3.97032
H    -2.25367   2.63825   4.85125
C    -2.37680   1.01655   3.46051
H    -3.22716   0.53816   3.92104
C    -1.81208   0.44316   2.32331
C    -2.22961  -0.75728   1.65683
C    -1.46660  -1.11008   0.58511
C    -1.93723  -2.25293  -0.08306
C    -3.08510  -2.81510   0.50060
C    -3.62462  -3.94538  -0.09833
H    -4.50145  -4.42511   0.30791
C    -3.01444  -4.44955  -1.23697
H    -3.43637  -5.32805  -1.70129
C    -1.87637  -3.87614  -1.81998
H    -1.44374  -4.30985  -2.70784
C    -1.33822  -2.75694  -1.23078
C    -0.72275  -0.64979  -2.91848
H    -1.20020  -1.23266  -3.70125
H     0.06032  -0.02217  -3.34055
H    -1.45906  -0.03423  -2.38847
O     1.17498   0.98032  -0.61718
