47

Hf    0.00000   0.00000   0.00000
N     0.40535   1.73514  -1.47004
N    -1.76287   0.81515   0.54972
P     0.75838   2.05812   1.46851
Cl    2.28418  -0.32413  -0.39901
Cl   -0.67894  -1.07911  -1.95014
H     0.80416   1.10876  -2.18142
C     1.53308   2.54135   3.03700
C     2.90026   2.29289   3.16929
H     3.45008   1.89552   2.32584
C     3.53664   2.55014   4.36798
H     4.59625   2.36662   4.46536
C     2.81169   3.02984   5.44868
H     3.30902   3.22690   6.38652
C     1.44749   3.23798   5.33175
H     0.88026   3.59190   6.17986
C     0.80230   2.98630   4.13322
H    -0.26421   3.13552   4.04616
C    -0.86586   2.86450   1.40943
C    -1.01942   4.20125   1.76155
H    -0.14419   4.77118   2.04398
C    -2.26753   4.79066   1.76221
H    -2.38461   5.82645   2.03894
C    -3.37279   4.02307   1.41187
H    -4.35672   4.46904   1.42556
C    -3.23967   2.70671   1.03301
H    -4.11795   2.15076   0.74719
C    -1.97465   2.07972   0.98652
C    -2.90996  -0.05086   0.32875
H    -3.58981  -0.03085   1.18785
H    -2.55123  -1.07721   0.20249
H    -3.46998   0.23655  -0.57128
C     1.64311   3.04312   0.20416
C     1.40201   2.72501  -1.13687
C     2.11415   3.36776  -2.13906
H     1.95130   3.09076  -3.17094
C     3.03681   4.35035  -1.82381
H     3.58955   4.84107  -2.60990
C     3.24575   4.69943  -0.50057
H     3.95537   5.47317  -0.25035
C     2.56047   4.04485   0.50691
H     2.74634   4.30292   1.53898
C    -0.80706   2.33556  -2.05038
H    -1.26577   3.00885  -1.32458
H    -1.50608   1.53427  -2.30007
H    -0.58317   2.90766  -2.95656
O    -0.08648  -1.25175   1.07152
