47

Zr    0.00000   0.00000   0.00000
P     0.74118   2.07384   1.45088
Cl    2.31057  -0.23845  -0.39021
Cl   -0.08007  -1.69051   1.57928
C    -0.87620   2.90253   1.46030
C     1.59942   3.07848   0.17762
C     1.34612   2.74847  -1.15880
C    -1.98614   2.11377   1.04022
C    -1.03438   4.22942   1.84036
H    -0.16103   4.80299   2.12108
C     1.58615   2.53034   2.99188
C    -2.89507  -0.02316   0.36424
H    -3.56901  -0.01746   1.23109
H    -2.52520  -1.04840   0.22824
H    -3.46792   0.26487  -0.53075
C     0.91311   2.97383   4.12504
H    -0.15459   3.13628   4.08807
C     2.50343   4.09703   0.46348
H     2.70039   4.36198   1.49184
C    -2.28950   4.80621   1.87070
H    -2.41258   5.83508   2.16998
C     3.16415   4.75726  -0.55738
H     3.86473   5.54363  -0.32136
C    -3.39308   4.03651   1.52015
H    -4.37986   4.47527   1.55591
C     2.03374   3.39696  -2.17452
H     1.86453   3.11078  -3.20332
C     2.95471   2.26201   3.05791
H     3.45689   1.86490   2.18421
C    -3.25661   2.72792   1.11424
H    -4.13575   2.17142   0.82978
C    -0.86907   2.32006  -2.03329
H    -1.32868   2.98383  -1.29691
H    -1.55928   1.50768  -2.28060
H    -0.66253   2.90136  -2.93981
C     1.61652   3.20385   5.29507
H     1.09483   3.55641   6.17254
C     2.94385   4.39717  -1.87585
H     3.47872   4.89274  -2.67130
C     3.64945   2.49762   4.22824
H     4.70977   2.29894   4.27543
C     2.98173   2.97620   5.34599
H     3.52482   3.15744   6.26139
N     0.36151   1.73786  -1.46907
N    -1.75758   0.85962   0.58311
H     0.76035   1.11265  -2.18456
O    -0.47932  -0.76537  -1.38093
