18

W     0.00000   0.00000   0.00000
Cl    1.82286   0.39597  -1.69456
Cl   -1.12413  -0.74531  -1.95960
O     2.66361   1.28001   1.12124
C    -1.06722  -1.61566   1.30954
C    -0.22093  -0.82198   2.14636
C    -0.74863   0.50776   2.15034
C    -1.92387   0.51054   1.35084
H    -2.60410   1.34386   1.23781
C    -2.11797  -0.78251   0.83968
H    -2.97230  -1.11411   0.26522
C     1.66882   0.87824   0.71582
O     2.08237  -2.35175  -0.35231
C     1.28332  -1.53384  -0.26196
H    -0.43687   1.30996   2.80719
H     0.53179  -1.20386   2.82481
H    -1.03663  -2.69412   1.22014
O    -0.45855   1.48785  -0.54637
