34

Pt    0.00000   0.00000   0.00000
C     2.02491   0.31805   0.06532
H     2.38434   0.23470   1.09041
H     2.49617  -0.46779  -0.53019
H     2.31588   1.29047  -0.33342
C    -0.24182   1.54860   1.32359
H     0.11465   1.24678   2.30780
H    -1.31060   1.76564   1.39258
H     0.28418   2.45358   1.01934
C    -0.36393   1.12574  -1.71569
H    -0.87838   2.07500  -1.54727
H     0.51425   1.31973  -2.33659
C    -1.30319   0.17908  -2.47111
C    -1.76549   0.73513  -3.81281
H    -2.28763   1.67496  -3.65084
H    -0.89814   0.92647  -4.43990
H    -2.43048   0.05053  -4.33438
N    -2.18193  -0.32269  -0.30903
N    -2.43946  -0.10551  -1.59896
C    -3.74172  -0.32364  -1.86593
H    -4.16120  -0.20685  -2.84363
C    -4.34254  -0.67885  -0.68049
H    -5.37434  -0.91360  -0.52086
C    -3.31319  -0.66583   0.26783
H    -3.34594  -0.89013   1.31557
N     0.09889  -1.54757  -1.60288
N    -0.60526  -1.09269  -2.63960
C    -0.62772  -2.00186  -3.63341
H    -1.13977  -1.83707  -4.55868
C     0.11576  -3.07947  -3.21130
H     0.31863  -3.98007  -3.75256
C     0.54751  -2.74185  -1.92343
H     1.14462  -3.30502  -1.23388
O     0.10804  -1.09700   1.22777
