63

Cu    0.00000   0.00000   0.00000
S    -3.03523  -1.05497  -4.30903
S     1.86579  -1.61868   0.12653
O    -2.01222  -1.27323  -0.79235
O     1.28501   1.06796   1.98600
N    -1.03477  -0.49598   1.57150
C    -1.97266  -2.25183   0.21585
H    -1.15498  -2.92292  -0.07886
H    -2.90624  -2.82800   0.23981
C    -3.10830  -0.43028  -0.82624
C    -4.01855  -0.30589   0.21359
H    -3.91570  -0.89157   1.11465
C    -5.07704   0.58248   0.11474
H    -5.77526   0.66309   0.93467
C    -5.23373   1.35785  -1.01746
H    -6.05481   2.05391  -1.09250
C    -4.33092   1.23048  -2.05780
H    -4.44811   1.82230  -2.95296
C    -3.26830   0.34327  -1.98400
C    -2.34083   0.17910  -3.13689
H    -1.38401  -0.21779  -2.81130
H    -2.20185   1.11496  -3.67691
C    -1.46446  -1.68024  -5.03067
H    -1.77943  -2.33245  -5.84395
H    -0.92035  -0.82359  -5.42648
C    -0.68704  -2.41445  -3.99334
C    -1.09522  -3.67531  -3.57359
H    -1.95498  -4.13500  -4.03854
C    -0.41605  -4.32799  -2.56208
H    -0.73535  -5.30990  -2.24349
C     0.66816  -3.72358  -1.94980
H     1.19488  -4.22526  -1.14969
C     1.08267  -2.45993  -2.35314
C     0.40249  -1.81265  -3.37529
H     0.72924  -0.83206  -3.69246
C     2.22954  -1.78702  -1.67159
H     2.38981  -0.78436  -2.06818
H     3.14612  -2.37561  -1.74736
C     3.15118  -0.36251   0.54806
H     4.08784  -0.72433   0.12550
H     2.85880   0.57858   0.08080
C     3.23541  -0.25086   2.03219
C     4.25539  -0.87706   2.73041
H     5.01270  -1.41438   2.17867
C     4.31326  -0.82642   4.11182
H     5.11544  -1.31784   4.63986
C     3.33086  -0.14730   4.80624
H     3.35870  -0.10170   5.88454
C     2.30004   0.48171   4.12917
H     1.55245   1.00930   4.69950
C     2.24264   0.44160   2.74254
C     0.03626   1.38551   2.57684
H    -0.45020   2.03857   1.84338
H     0.14467   1.92548   3.52058
C    -0.75478   0.11362   2.73135
C    -1.09659  -0.44592   3.94799
H    -0.86904   0.06818   4.86815
C    -1.74567  -1.67410   3.96307
H    -2.02446  -2.13417   4.89805
C    -2.03503  -2.29630   2.75733
H    -2.54614  -3.24589   2.72812
C    -1.67201  -1.66921   1.57690
O     0.41489   1.07822  -1.17805
