54

Rh    0.00000   0.00000   0.00000
I     0.65977  -1.32293   2.26343
P    -0.87574  -1.89346  -1.34714
C     1.74795   0.02491  -0.58486
O     2.83139   0.03891  -0.94182
N    -1.88977  -0.02949   0.71518
C     0.08464   1.61427   1.25392
C    -1.18154   1.96147   1.75345
C    -1.31591   3.09735   2.55367
H    -2.28585   3.38039   2.93301
C    -0.20926   3.86031   2.86076
H    -0.31661   4.73917   3.47824
C     1.04070   3.49893   2.38217
H     1.90872   4.09127   2.63000
C     1.18880   2.38167   1.57544
H     2.17273   2.12418   1.20455
C    -2.26574   1.03939   1.44867
C    -3.57335   1.14753   1.91974
H    -3.87600   2.01858   2.47566
C    -4.46523   0.12397   1.67492
H    -5.48462   0.19056   2.02271
C    -4.02588  -1.01250   1.01266
H    -4.68324  -1.85451   0.86258
C    -2.71984  -1.06550   0.54870
C    -2.16491  -2.31104  -0.07417
H    -2.95845  -2.94751  -0.47033
H    -1.64131  -2.86364   0.71750
C    -1.98242  -1.60377  -2.87506
C    -1.13508  -0.99584  -3.99641
H    -0.50139  -1.73698  -4.47327
H    -0.50381  -0.19236  -3.62751
H    -1.78633  -0.57557  -4.76087
C    -2.69671  -2.84637  -3.40692
H    -3.40126  -2.52899  -4.17542
H    -3.26698  -3.35732  -2.63353
H    -2.01049  -3.54928  -3.86980
C    -3.06714  -0.59966  -2.46494
H    -2.65470   0.26569  -1.95396
H    -3.81953  -1.05938  -1.82660
H    -3.57145  -0.23084  -3.35662
C     0.05449  -3.53909  -1.57038
C     1.11314  -3.61527  -0.46812
H     1.74700  -4.48581  -0.62986
H     0.66502  -3.71783   0.51661
H     1.75534  -2.73480  -0.47321
C    -0.81339  -4.79250  -1.46304
H    -0.17120  -5.66420  -1.58496
H    -1.58223  -4.84269  -2.22512
H    -1.28226  -4.86832  -0.48465
C     0.79407  -3.49938  -2.90919
H     1.30376  -2.54381  -3.03702
H     0.12604  -3.65972  -3.75046
H     1.54752  -4.28564  -2.93436
O    -0.23597   1.22486  -1.08006
