46

Pt    0.00000   0.00000   0.00000
I     0.17408   2.14771   1.45083
Si   -1.20079  -2.37168   3.49791
N    -0.01511  -1.77222  -1.03690
N    -0.19336  -3.21858   0.89900
N     1.38984  -2.09187   2.22069
N     1.93903  -0.44214   0.53763
C     0.00779  -1.76851  -2.36585
H     0.08355  -0.79876  -2.84163
C    -0.07692  -2.92287  -3.13605
H    -0.05285  -2.83243  -4.20974
C    -0.20373  -4.15880  -2.53142
H    -0.28290  -5.06557  -3.11053
C    -0.23088  -4.19021  -1.14100
C    -0.33029  -5.20308  -0.14997
H    -0.41481  -6.25586  -0.32703
C    -0.29403  -4.57737   1.05642
H    -0.33284  -4.99871   2.04002
C    -0.13471  -2.95774  -0.43814
C    -0.02097  -2.24469   1.95168
H    -0.34253  -1.26826   1.50378
C     2.13576  -2.80780   3.12119
H     1.65617  -3.50744   3.77541
C     3.45177  -2.47882   3.03105
H     4.25615  -2.87453   3.61692
C     3.56111  -1.50393   2.00350
C     4.59725  -0.77844   1.42508
H     5.61475  -0.89206   1.76519
C     4.26870   0.09504   0.40580
H     5.02685   0.68700  -0.08038
C     2.94647   0.23891   0.00101
H     2.68713   0.94418  -0.77893
C     2.24179  -1.29512   1.51609
C    -2.91472  -2.07399   2.73861
H    -3.69265  -2.10451   3.49500
H    -3.16364  -2.81879   1.98585
H    -2.97200  -1.10021   2.25843
C    -0.58221  -0.95959   4.60811
H    -1.25235  -0.80603   5.44798
H    -0.53413  -0.02088   4.06159
H     0.40846  -1.15134   5.01314
C    -1.17746  -4.04453   4.41633
H    -1.63497  -3.90405   5.39035
H    -0.18554  -4.45018   4.58963
H    -1.76287  -4.79842   3.89863
O    -1.55923   0.24559  -0.48061
