37

Hf    0.00000   0.00000   0.00000
Cl    1.53523  -1.60494   0.60061
C    -0.29214   1.94473   1.35031
C     0.58734   1.22124   2.19780
C    -0.05767   0.07236   2.68181
C    -1.37495   0.04511   2.15494
C    -2.47662  -0.80883   2.36015
C    -3.66228  -0.53038   1.73153
C    -3.80450   0.58382   0.88248
C    -2.76606   1.44995   0.65653
C    -1.53003   1.20945   1.30046
C    -0.08495   3.23239   0.65970
H     1.56545   1.56298   2.50805
H     0.34828  -0.62083   3.40143
H    -2.38035  -1.66321   3.01446
H    -4.51351  -1.17560   1.88395
H    -4.75880   0.75644   0.40858
H    -2.89439   2.33106   0.03957
H    -0.14727   4.14602   1.23704
C     0.29259   1.94477  -1.35031
C    -0.58628   1.22146  -2.19854
C     0.05899   0.07263  -2.68229
C     1.37589   0.04526  -2.15452
C     1.53042   1.20939  -1.29967
C     0.08482   3.23235  -0.65974
H    -1.56416   1.56333  -2.50939
H    -0.34651  -0.62044  -3.40230
C     2.47771  -0.80860  -2.35926
C     2.76606   1.44975  -0.65494
H     0.14680   4.14599  -1.23706
C     3.66295  -0.53035  -1.72979
H     2.38188  -1.66279  -3.01389
C     3.80466   0.58364  -0.88037
H     2.89402   2.33076  -0.03775
H     4.51426  -1.17552  -1.88191
H     4.75871   0.75620  -0.40591
O    -1.10311  -1.14884  -0.43106
