30

Ru    0.00000   0.00000   0.00000
Cl   -1.76105   1.08633  -1.23502
O    -1.86168  -0.40891   2.31981
O    -0.87474  -2.63230  -1.19266
N     1.17254   0.52772  -1.58244
N     1.17749   2.49680  -0.35491
N     0.58425   1.77518   0.50935
C    -1.12028  -0.26033   1.47014
C    -0.55010  -1.65648  -0.71214
C     1.53167  -0.14979  -2.66545
C     2.23363   0.43038  -3.70842
C     2.57673   1.77586  -3.63292
C     2.21785   2.48984  -2.50950
C     1.51520   1.83204  -1.49604
C     0.25740   2.43649   1.69256
C    -0.17321   3.76472   1.66826
C    -0.51721   4.39020   2.84990
C    -0.40411   3.71454   4.05588
C     0.05878   2.40671   4.08295
C     0.38272   1.75834   2.90782
H     1.25461  -1.19576  -2.70314
H     2.50178  -0.16419  -4.56644
H     3.11626   2.25103  -4.43747
H     2.45477   3.53277  -2.38097
H    -0.26706   4.26466   0.71635
H    -0.87522   5.40827   2.83187
H    -0.67381   4.20846   4.97699
H     0.16641   1.88991   5.02420
H     0.78201   0.75191   2.91954
O     1.33113  -0.70724   0.67112
