25

Pd    0.00000   0.00000   0.00000
Cl    0.10542   2.15250   0.54023
O     1.70126  -0.29858   2.22911
O     2.27843  -1.65081   0.49711
H     2.95992  -0.98942   0.27704
N    -0.30057  -2.02559  -0.55959
N    -0.08309  -2.83269   0.48318
N    -0.79539  -1.49260   2.29835
N    -1.21512  -0.39643   1.65650
C    -0.57839  -2.79158  -1.59431
H    -0.78398  -2.36207  -2.55576
C    -0.54060  -4.13859  -1.20967
H    -0.71914  -4.99375  -1.82702
C    -0.21707  -4.12644   0.12584
H    -0.07368  -4.92541   0.82433
C     0.30367  -2.22440   1.72568
H     0.66961  -2.97908   2.42928
C     1.43639  -1.16444   1.42742
C    -1.46070  -1.64985   3.46152
H    -1.25774  -2.46618   4.12428
C    -2.35075  -0.60761   3.55610
H    -3.04189  -0.41354   4.34915
C    -2.15378   0.15533   2.39702
H    -2.63782   1.05990   2.08220
O     1.00106   0.26833  -1.28389
