38

Fe    0.00000   0.00000   0.00000
Cl   -0.89684  -1.56240  -0.89917
N    -2.32984   0.57922   1.11823
N    -1.14134   1.88564  -1.34832
N     1.34933   0.40868  -2.24333
C    -2.93867   1.68430   0.37525
H    -4.03641   1.65265   0.45729
H    -2.60633   2.62347   0.81743
C    -2.56873   1.65972  -1.11092
H    -3.17597   2.41796  -1.63521
H    -2.82144   0.67700  -1.51296
C    -0.79892   1.56408  -2.73544
H    -1.23445   2.30663  -3.42661
H    -1.22565   0.58614  -2.96532
C     0.71191   1.50228  -2.97961
H     0.88107   1.39520  -4.06240
H     1.16900   2.44231  -2.67072
C    -3.20860  -0.58452   1.09966
H    -2.71507  -1.41811   1.59480
H    -3.41429  -0.87753   0.07369
H    -4.16073  -0.37834   1.61192
C    -2.07436   0.96210   2.50291
H    -1.36646   1.78781   2.53022
H    -1.63114   0.11773   3.02773
H    -2.99680   1.25562   3.02565
C    -0.79232   3.26876  -1.04990
H    -1.33398   3.97079  -1.70209
H     0.27536   3.41878  -1.17285
H    -1.02175   3.49630  -0.01402
C     1.35915  -0.80457  -3.05261
H     1.96475  -0.67673  -3.96276
H     0.34404  -1.06886  -3.33637
H     1.76963  -1.62547  -2.46839
C     2.72062   0.75325  -1.88298
H     3.16603  -0.08200  -1.34558
H     2.72004   1.61865  -1.22361
H     3.33681   0.97010  -2.76821
O     0.85660   1.10140   0.88072
