27

I     0.82137   2.25970   0.62251
Fe    0.00000   0.00000   0.00000
N    -2.10506  -0.03861   0.47554
N     0.25673  -1.22393   1.76837
C    -2.10700  -0.48529   1.88041
C    -1.12111  -1.63428   2.09737
C    -2.89653  -0.96195  -0.34408
C    -2.73400   1.28266   0.37442
C     1.08255  -2.40992   1.51827
C     0.84709  -0.51111   2.90597
H    -3.11346  -0.80356   2.18453
H    -1.81703   0.36260   2.50508
H    -1.18433  -1.97891   3.13800
H    -1.39169  -2.46998   1.44902
H    -2.88974  -0.62636  -1.37909
H    -2.47901  -1.96464  -0.31274
H    -3.93516  -1.00056   0.00593
H    -2.65798   1.63943  -0.65238
H    -3.79326   1.23760   0.65265
H    -2.23228   1.99515   1.02496
H     2.08151  -2.09604   1.21714
H     1.16620  -3.03002   2.41834
H     0.65496  -3.01019   0.71850
H     1.85110  -0.18009   2.64774
H     0.25676   0.36476   3.16156
H     0.90796  -1.16394   3.78511
O     0.17920  -0.98968  -1.30802
