65

H     2.55335  -4.38659   0.75787
Pt    0.00000   0.00000   0.00000
P     0.93366  -1.37497   1.50497
N    -0.92896   1.32803  -1.32604
O     1.75657  -4.81006   0.41621
C     1.13407   1.62510   0.35160
C     1.91765   1.90812   1.48818
H     2.04297   1.14922   2.25186
C     2.52859   3.12005   1.64465
H     3.12455   3.32375   2.52383
C     2.40609   4.12654   0.66605
C     3.04577   5.37439   0.81118
H     3.63123   5.55134   1.70261
C     2.93387   6.33837  -0.14981
H     3.42656   7.29245  -0.03266
C     2.17613   6.08806  -1.30298
H     2.09853   6.85306  -2.06228
C     1.54151   4.88961  -1.47281
H     0.97348   4.72162  -2.37540
C     1.62664   3.87154  -0.49613
C     0.98753   2.61290  -0.60903
C     0.15374   2.21973  -1.80880
H    -0.30457   3.08754  -2.30483
C     1.07550   1.49104  -2.79191
H     1.99061   2.06622  -2.91523
H     0.61879   1.35951  -3.76959
H     1.33730   0.51291  -2.37571
C    -1.88420   2.09763  -0.52224
H    -1.36805   2.63110   0.27759
H    -2.61706   1.41715  -0.08550
H    -2.41393   2.82936  -1.14606
C    -1.66022   0.72302  -2.43905
H    -2.03161   1.49597  -3.12333
H    -2.50336   0.15584  -2.04742
H    -1.02673   0.02677  -2.98399
C     0.37028  -3.10517   1.46694
C     0.77745  -3.82210   0.19795
H    -0.08123  -4.34389  -0.22925
H     1.12770  -3.07437  -0.53616
C    -0.30654  -3.68873   2.44564
H    -0.62619  -4.71507   2.36105
H    -0.57646  -3.16533   3.34893
C     2.73504  -1.65643   1.51220
C     3.30489  -2.63848   2.31953
H     2.67489  -3.23551   2.96638
C     4.67149  -2.85414   2.28577
H     5.11154  -3.61334   2.91586
C     5.47295  -2.10277   1.44042
H     6.53856  -2.27534   1.41635
C     4.90661  -1.13993   0.62088
H     5.52964  -0.56289  -0.04594
C     3.54114  -0.91892   0.65363
H     3.08041  -0.17372   0.01755
C     0.47675  -0.78233   3.16068
C     1.26935  -0.84371   4.29909
H     2.25882  -1.27513   4.25352
C     0.79336  -0.32920   5.49348
H     1.41017  -0.37479   6.37923
C    -0.46496   0.24600   5.55626
H    -0.82827   0.64432   6.49208
C    -1.25379   0.32062   4.41829
H    -2.23073   0.77847   4.46641
C    -0.78138  -0.18622   3.22341
H    -1.37620  -0.13270   2.31455
O    -1.10510  -1.19270  -0.28054
