47

I    -1.17821   1.71064  -1.72483
Cd    0.00000   0.00000   0.00000
N    -0.14280  -2.08218  -1.23893
N    -0.78233  -3.97179  -2.20093
H    -1.25017  -4.85512  -2.31921
N    -1.92641  -0.43450   1.38917
N    -4.07207  -0.69100   1.87161
H    -5.04693  -0.90281   1.73799
C     0.41771  -2.13800  -2.49779
C     1.25734  -1.24378  -3.15336
H     1.58531  -0.32762  -2.67811
C     1.65903  -1.57543  -4.42975
H     2.30820  -0.90460  -4.97075
C     1.24818  -2.75986  -5.04562
H     1.58934  -2.97467  -6.04668
C     0.42167  -3.66240  -4.40674
H     0.10866  -4.57977  -4.88100
C     0.01353  -3.33479  -3.12435
C    -0.83755  -3.18132  -1.09689
C    -1.60580  -3.56983   0.11997
H    -1.45147  -2.80243   0.88148
H    -1.19986  -4.51085   0.50190
C    -3.07535  -3.75140  -0.18137
C    -3.60758  -5.03489  -0.19858
H    -2.96475  -5.87704   0.01739
C    -4.94521  -5.25540  -0.47417
H    -5.33634  -6.26120  -0.47909
C    -5.77335  -4.18074  -0.74175
H    -6.81854  -4.33766  -0.95977
C    -5.25371  -2.89881  -0.73047
H    -5.90079  -2.06124  -0.94995
C    -3.91125  -2.66586  -0.45816
C    -3.39491  -1.24758  -0.45818
H    -2.48664  -1.17007  -1.05689
H    -4.14443  -0.58607  -0.90066
C    -3.10142  -0.78009   0.92558
C    -3.48143  -0.24354   3.02959
C    -3.97452   0.03542   4.29344
H    -5.02016  -0.08809   4.53004
C    -3.06493   0.48121   5.23151
H    -3.40638   0.71274   6.22886
C    -1.71247   0.64272   4.92306
H    -1.04080   0.99448   5.69083
C    -1.21448   0.36653   3.66714
H    -0.16695   0.49195   3.43690
C    -2.11727  -0.08227   2.70917
O     1.42009  -0.17190   0.82238
