53

Pd    0.00000   0.00000   0.00000
Cl   -1.01126  -1.74933   1.13766
S    -0.16508  -1.06630  -2.03268
S     0.20381   0.95087   2.10159
O    -2.62275   0.06710  -2.57159
O    -2.28694   1.54206  -0.00699
C     2.47211  -1.48131   0.21030
H     1.77890  -1.92242   0.92668
C     3.57869  -0.78101   0.66584
H     3.71493  -0.61976   1.72536
C     4.51178  -0.29252  -0.23487
H     5.36874   0.25479   0.12610
C     4.34422  -0.50514  -1.59138
H     5.06767  -0.11966  -2.29428
C     3.24143  -1.20213  -2.05420
H     3.10141  -1.35419  -3.11491
C     2.30196  -1.70036  -1.16095
C     1.06723  -2.38820  -1.65794
H     0.63053  -3.03301  -0.89415
H     1.24276  -2.93974  -2.58188
C    -1.71394  -2.02570  -2.00387
H    -1.84074  -2.45530  -2.99700
H    -1.65534  -2.79567  -1.23736
C    -2.80733  -1.02521  -1.68647
H    -3.80362  -1.47089  -1.83287
H    -2.70646  -0.70195  -0.64084
C    -3.28006   1.25191  -2.19554
H    -4.23607   1.02024  -1.70853
H    -3.47139   1.79784  -3.12413
C    -2.44277   2.15347  -1.28239
H    -1.45390   2.32375  -1.73265
H    -2.96763   3.11257  -1.16824
C    -1.89879   2.45430   0.99817
H    -2.75621   3.09798   1.25950
H    -1.08034   3.09365   0.63553
C    -1.47013   1.66777   2.22952
H    -2.13690   0.81346   2.36474
H    -1.48558   2.29486   3.12120
C     1.19387   2.49855   2.10450
H     1.12172   2.95590   1.11786
H     0.74065   3.13388   2.86850
C     2.62161   2.20098   2.43432
C     3.63086   2.55410   1.54913
H     3.37436   3.00260   0.60138
C     4.95590   2.32607   1.87826
H     5.73601   2.62339   1.19278
C     5.28157   1.72111   3.07988
H     6.31553   1.53842   3.33344
C     4.27658   1.34566   3.95672
H     4.52521   0.86577   4.89198
C     2.95342   1.59037   3.63879
H     2.16807   1.30149   4.32278
O     0.77115   1.24380  -0.76210
