58

Pd    0.00000   0.00000   0.00000
I     0.90841  -1.74357  -1.71091
P    -0.34923   1.44767   1.67839
P     1.88808   1.08973  -0.41133
N     0.70439  -0.35250   2.62275
C    -1.48955   1.11689   3.03966
C    -2.52554   1.97447   3.38450
C    -3.39791   1.62501   4.40060
C    -3.25614   0.41574   5.06288
C    -2.25024  -0.46216   4.70319
C    -1.36379  -0.11958   3.69095
C    -0.31930  -1.00453   3.18537
C    -0.42927  -2.39352   3.15432
C     0.53320  -3.11340   2.47242
C     1.62332  -2.44229   1.93358
C     1.69648  -1.05338   2.04440
C     2.98782  -0.38939   1.71417
C     4.07659  -0.78605   2.49226
C     5.33929  -0.27449   2.26564
C     5.55053   0.63519   1.23971
C     4.48868   1.03010   0.45377
C     3.20658   0.53232   0.68841
C    -1.05407   2.90777   0.83729
C    -1.00026   4.17597   1.40924
C    -1.50081   5.26552   0.72320
C    -2.05456   5.09827  -0.53670
C    -2.09558   3.84308  -1.12024
C    -1.58858   2.75135  -0.43878
C     1.93410   2.90026  -0.29823
C     2.41905   3.59876   0.80116
C     2.34210   4.98026   0.82293
C     1.77904   5.66507  -0.24058
C     1.29460   4.97170  -1.33889
C     1.36894   3.59367  -1.36726
H     2.53252   0.96264  -1.64152
H     0.68747   2.11212   2.33598
H    -2.66064   2.90570   2.85341
H    -4.20021   2.29624   4.66787
H    -3.94346   0.14962   5.85148
H    -2.14647  -1.40868   5.21178
H    -1.29010  -2.87684   3.58556
H     0.44202  -4.18207   2.35567
H     2.40803  -2.97705   1.41930
H     3.91916  -1.50273   3.28575
H     6.16449  -0.59416   2.88380
H     6.53927   1.02531   1.05183
H     4.63430   1.73006  -0.35917
H    -0.55716   4.29694   2.39069
H    -1.45798   6.24856   1.16944
H    -2.44741   5.95233  -1.06828
H    -2.51730   3.71605  -2.10628
H    -1.60931   1.76033  -0.91491
H     2.86991   3.06452   1.62774
H     2.72354   5.52319   1.67546
H     1.71912   6.74274  -0.21548
H     0.85850   5.50612  -2.16945
H     0.98964   3.03623  -2.21732
O    -1.48448  -0.68719   0.21580
