35

Pd    0.00000   0.00000   0.00000
Cl    0.09445   2.03050  -0.97773
P    -0.06480  -2.04139   0.91892
P     1.60470   0.71254   1.39043
O     1.13186  -2.88800   0.27735
O    -1.22436  -3.14712   0.76372
O     0.29364  -2.07062   2.48055
O     2.59965  -0.43918   1.89312
O     0.89285   1.16658   2.74926
O     2.55928   1.99485   1.20058
C     1.41583  -2.68469  -1.10382
C    -2.58409  -2.82232   1.03147
C     0.66249  -3.29104   3.11926
C     3.41318  -0.24243   3.04763
C    -0.37343   1.81159   2.64653
C     3.30328   2.17410   0.00057
H     2.37825  -3.15653  -1.29745
H     1.47803  -1.60084  -1.34023
H     0.64141  -3.14081  -1.72443
H    -2.71813  -2.54029   2.07805
H    -3.15906  -3.72048   0.81217
H    -2.90813  -2.00673   0.38092
H     0.47839  -3.15608   4.18445
H     1.71874  -3.49246   2.94339
H     0.06859  -4.12258   2.73756
H     3.78789   0.78126   3.08724
H     4.24347  -0.94341   2.96996
H     2.83127  -0.44784   3.94565
H    -0.25571   2.82563   2.25811
H    -0.79099   1.84090   3.65209
H    -1.05394   1.24351   1.97694
H     3.83656   3.11672   0.11204
H     2.62489   2.23059  -0.85403
H     4.01507   1.35791  -0.14190
O    -1.21205  -0.49208  -1.00563
