35

C     1.15622   2.02299  -1.60881
C     1.63578   2.58612  -0.41332
H     1.40689   2.08952   0.52618
C     2.37690   3.73984  -0.43618
H     2.74103   4.16643   0.48590
C     2.66519   4.37067  -1.65114
H     3.24919   5.27851  -1.65385
C     2.20956   3.83978  -2.83068
H     2.42880   4.32149  -3.77231
C     1.44814   2.65967  -2.84182
C     0.95343   2.07015  -4.03339
H     1.16705   2.54017  -4.98100
C     0.21902   0.92502  -3.96164
H    -0.16891   0.45693  -4.85184
C    -0.04397   0.33497  -2.70819
C    -0.79910  -0.85701  -2.46481
C    -1.42810  -1.66848  -3.43145
H    -1.35096  -1.39767  -4.47199
C    -2.12127  -2.77509  -3.04319
H    -2.61191  -3.41036  -3.76447
C    -2.20254  -3.10191  -1.66527
C    -2.89817  -4.22321  -1.18435
H    -3.39528  -4.86648  -1.89561
C    -2.94690  -4.49685   0.15861
H    -3.48489  -5.36109   0.51760
C    -2.30012  -3.65839   1.07286
H    -2.34460  -3.88391   2.12735
C    -1.61267  -2.55540   0.63510
H    -1.10720  -1.89854   1.33847
C    -1.54908  -2.25283  -0.73630
N     0.41984   0.87762  -1.55671
N    -0.86156  -1.14899  -1.14335
Fe    0.00000   0.00000   0.00000
Cl    1.74462  -1.01604   0.42149
O    -1.24509   0.90691   0.59141
