64

Nb    0.00000   0.00000   0.00000
Cl   -0.14739  -0.61497   2.36788
Cl    0.60699   2.90250  -2.10923
Cl   -3.47173  -0.90906   2.35685
Cl   -0.60127  -3.43803  -1.37525
Cl   -2.02498   2.26803   2.40396
N     1.48128   0.91366   0.33525
N     1.56099  -1.97775   0.00793
N    -1.92888  -1.11326  -0.11194
C     2.66119   1.46765   0.86313
N    -1.27548   1.63491  -0.29776
C    -2.00286  -2.30554   0.60620
C    -3.05869   0.51093  -1.43621
H    -3.88950   0.64879  -2.11217
C     3.31735  -3.14211  -1.10992
H     3.98254  -3.19662  -1.95724
C    -0.66980   4.57627   1.86006
H    -0.93998   4.92006   2.84495
C    -2.36225   1.64790  -1.07555
C    -2.89421   2.97533  -1.55029
H    -3.81144   2.84181  -2.11621
H    -2.16044   3.47084  -2.18530
H    -3.09476   3.62594  -0.69905
C    -2.91900  -0.77940  -0.89422
C    -0.78566   2.87512   0.14279
C    -1.11327   3.34117   1.41636
C    -1.37914  -3.47580   0.17419
C     3.43650   2.26959  -0.19750
H     3.54254   1.66980  -1.09944
H     4.42313   2.52891   0.17771
H     2.90387   3.18331  -0.44485
C    -4.01870  -1.76848  -1.17688
H    -3.60177  -2.74397  -1.42559
H    -4.64689  -1.43113  -1.99637
H    -4.63857  -1.88681  -0.28714
C    -2.66785  -3.48032   2.62175
H    -3.17341  -3.47031   3.57383
C     2.46588  -3.97487   0.94775
H     2.44664  -4.69410   1.75113
C     1.59674  -2.89552   0.96957
H     0.90732  -2.75954   1.79429
C     0.52733   4.87515  -0.21434
H     1.18442   5.45421  -0.84235
C     3.34236  -4.10748  -0.11586
H     4.02753  -4.94044  -0.16991
C     0.12765   5.34594   1.02768
H     0.46736   6.31298   1.36348
C     0.07802   3.63795  -0.64464
C     2.30434   2.36255   2.06584
H     1.76789   3.24620   1.73197
H     3.20572   2.66903   2.58982
H     1.66594   1.79941   2.74427
C     2.41369  -2.09722  -1.00689
H     2.35454  -1.33158  -1.77151
C    -2.66885  -2.34268   1.83746
C    -1.37610  -4.62449   0.94703
H    -0.87918  -5.50885   0.58160
C     3.54007   0.29873   1.36173
H     2.95719  -0.31739   2.04497
H     4.41504   0.68229   1.87996
H     3.86228  -0.31029   0.51941
C    -2.01638  -4.61795   2.17370
H    -2.01340  -5.50725   2.78379
O     0.03935  -0.26783  -1.62764
