65

Zn    0.00000   0.00000   0.00000
C     1.89569   2.36282  -1.23394
H     2.87048   2.87133  -1.18875
H     1.93651   1.59783  -2.01030
C     0.77887   3.38507  -1.47264
H     0.05167   3.00966  -2.18903
H     1.18821   4.31707  -1.86024
C     0.13795   3.58025  -0.09017
H     0.01041   4.62854   0.17129
H    -0.83625   3.09467  -0.04508
C     1.09110   2.87057   0.86228
H     1.91949   3.53356   1.15624
H     0.57546   2.51590   1.75179
C     2.77214   1.12147   0.64589
H     3.50089   1.88301   0.96917
H     3.24451   0.50514  -0.12339
C     2.41166   0.24319   1.84087
H     3.33843  -0.07905   2.34361
H     1.82472   0.82960   2.54963
C     0.97053  -1.54904   2.59141
H     0.17849  -0.91495   2.98633
H     1.70884  -1.74962   3.38229
C     0.44638  -2.84891   1.99915
H    -0.50562  -2.65673   1.50254
H     0.29331  -3.61279   2.75868
C     1.52326  -3.23706   0.97341
H     2.11928  -4.07965   1.32168
H     1.07834  -3.50814   0.01807
C     2.39344  -1.98084   0.83616
H     3.34016  -2.10977   1.38280
H     2.62135  -1.75570  -0.20590
C     2.70486  -0.90742  -3.49888
H     3.50844  -1.36555  -4.06805
H     3.14680  -0.48125  -2.60260
H     2.31207  -0.08695  -4.09216
C     0.79779  -3.00275  -4.68859
H     0.46003  -2.27396  -5.41829
H    -0.02258  -3.69076  -4.51187
H     1.60836  -3.56604  -5.14182
C    -2.64842   1.60016  -2.73769
H    -2.86383   2.52704  -3.26194
H    -2.34851   1.85693  -1.72518
H    -3.57879   1.04449  -2.66375
C    -2.08975  -0.19583  -5.17021
H    -2.85503  -0.92303  -4.91758
H    -1.34460  -0.70380  -5.77331
H    -2.55124   0.56345  -5.79520
C    -1.59324  -4.36570  -1.25090
H    -1.22451  -4.33541  -0.23028
H    -0.77575  -4.69087  -1.88747
H    -2.36328  -5.13055  -1.29261
C    -3.51328  -2.05134  -0.51981
H    -4.18224  -2.83674  -0.17861
H    -4.12677  -1.25469  -0.92941
H    -3.01081  -1.64550   0.35469
N     1.59497   1.75013   0.06465
N     1.61008  -0.90297   1.44428
Si   -0.52696  -1.08363  -2.08949
Si    1.32550  -2.15513  -3.07096
H     2.00539  -3.20640  -2.27517
Si   -1.31231   0.55342  -3.60247
H    -0.27172   1.49643  -4.08840
Si   -2.26318  -2.66951  -1.81313
H    -3.01931  -2.93710  -3.05689
O    -0.97456   0.52632   1.22299
