65

Zn    0.00000   0.00000   0.00000
C     2.94590   0.29762   1.43474
H     2.72343   1.20118   1.96764
C     4.13296  -0.38620   1.33423
H     5.09820  -0.17620   1.74721
C     2.58956  -1.41390   0.19741
C     0.25052  -3.09375  -1.68705
C    -0.89114  -2.85553  -2.46238
H    -1.21634  -1.83620  -2.58964
C    -1.54028  -3.89558  -3.08063
H    -2.41266  -3.70766  -3.68765
C    -1.05656  -5.19341  -2.94015
H    -1.56361  -6.01342  -3.42655
C     0.08274  -5.44610  -2.20398
H     0.45689  -6.45591  -2.14665
C     0.75937  -4.41118  -1.56835
C     4.84169  -2.49611   0.19186
H     5.80554  -2.02490  -0.01872
H     4.46916  -2.98394  -0.71060
C     4.98285  -3.51777   1.31619
H     5.34292  -3.04148   2.22547
H     5.68804  -4.28973   1.02282
H     4.01956  -3.98008   1.51823
C     2.17736  -6.45043  -0.30036
H     1.21888  -6.75623   0.10352
H     2.95402  -6.61680   0.43905
H     2.41889  -6.99704  -1.20608
N     2.00192  -0.34954   0.73075
N     3.90053  -1.46794   0.54894
N     2.01512  -2.32380  -0.60667
N     0.81799  -2.07367  -0.99346
S     2.20476  -4.63682  -0.61729
C    -2.94819   0.27986  -1.44069
H    -2.72794   1.17689  -1.98539
C    -4.13279  -0.40725  -1.33330
H    -5.09794  -0.20686  -1.75125
C    -2.58783  -1.41311  -0.17934
C    -0.23896  -3.05818   1.72270
C     0.89955  -2.80552   2.49818
H     1.21320  -1.78231   2.62355
C     1.56063  -3.83715   3.11775
H     2.43131  -3.63834   3.72373
C     1.09171  -5.14071   2.97943
H     1.60897  -5.95421   3.46604
C    -0.04595  -5.40730   2.24577
H    -0.40939  -6.42117   2.19135
C    -0.73446  -4.38114   1.60866
C    -4.83475  -2.50630  -0.16698
H    -5.80166  -2.03775   0.03552
H    -4.46238  -2.98226   0.74188
C    -4.96729  -3.54093  -1.28052
H    -5.32645  -3.07631  -2.19618
H    -5.66983  -4.31301  -0.98116
H    -4.00112  -4.00082  -1.47427
C    -2.13486  -6.43832   0.35061
H    -1.17355  -6.73645  -0.05208
H    -2.90965  -6.61461  -0.38841
H    -2.37161  -6.98349   1.25844
N    -2.00327  -0.35392  -0.72594
N    -3.89771  -1.47748  -0.53304
N    -2.00954  -2.31027   0.63650
N    -0.81487  -2.04748   1.02246
S    -2.17912  -4.62398   0.66088
I     0.82810   1.14611  -2.17572
O    -0.52061   0.77199   1.36216
