65

Pd    0.00000   0.00000   0.00000
P    -0.65968   0.88157  -1.93649
O     2.23744  -3.24184   1.23269
N     0.70894  -0.52528   1.90818
C     0.44172   0.46685  -3.31688
C     1.28556  -0.61929  -3.11373
H     1.26223  -1.12122  -2.14443
C     2.12944  -1.04082  -4.12393
H     2.79295  -1.87761  -3.96319
C     2.12147  -0.38576  -5.34488
H     2.78712  -0.70495  -6.13349
C     1.24913   0.66857  -5.56435
H     1.22893   1.16052  -6.52617
C     0.39750   1.08991  -4.55895
H    -0.30927   1.88731  -4.74314
C    -0.65237   2.66191  -1.56196
C    -0.12354   3.67430  -2.34875
H     0.34099   3.44351  -3.29521
C    -0.15399   4.98253  -1.89392
H     0.26756   5.76893  -2.50302
C    -0.70839   5.28460  -0.66236
H    -0.72402   6.30663  -0.31324
C    -1.22459   4.27304   0.13405
H    -1.64031   4.50662   1.10374
C    -1.19155   2.96570  -0.31008
H    -1.57680   2.15114   0.31338
C    -2.24156   0.67115  -2.83032
C    -3.14177   1.70237  -3.06085
H    -2.93899   2.69273  -2.67702
C    -4.29994   1.45756  -3.78019
H    -4.99826   2.26206  -3.96002
C    -4.56460   0.18897  -4.26655
H    -5.46960   0.00354  -4.82600
C    -3.67099  -0.84578  -4.03160
H    -3.88074  -1.83729  -4.40497
C    -2.51503  -0.60555  -3.31628
H    -1.81271  -1.40443  -3.10886
C     2.60808  -3.96820   0.16429
H     2.50483  -5.03268   0.23904
C     3.05108  -3.16159  -0.83505
H     3.41294  -3.46886  -1.79470
C     2.94577  -1.83488  -0.34534
H     3.24375  -0.92897  -0.83597
C     2.43613  -1.93626   0.91806
C     2.13623  -0.88240   1.93234
H     2.71530   0.00804   1.66894
H     2.42250  -1.22824   2.93790
C     0.48205   0.71015   2.65952
H    -0.59189   0.92511   2.69283
H     1.00200   1.54013   2.16895
H     0.85339   0.61730   3.69050
C    -0.11328  -1.61180   2.46120
H    -0.10384  -1.57674   3.56213
H     0.31640  -2.57163   2.15633
C    -1.50983  -1.51485   1.90986
C    -2.59129  -2.03558   2.60467
H    -2.43243  -2.50735   3.56552
C    -3.86639  -1.94899   2.07478
H    -4.70796  -2.35600   2.61636
C    -4.05156  -1.32706   0.85421
H    -5.04406  -1.24110   0.43416
C    -2.96856  -0.80273   0.16279
H    -3.15709  -0.31599  -0.78576
C    -1.67339  -0.90150   0.65944
O     1.30426   0.94775  -0.35097
