53

Pd    0.00000   0.00000   0.00000
Cl    0.77158  -0.97053   1.92918
O    -4.63054   0.60584   1.47334
O     3.45929  -1.87708  -2.66986
N    -1.84838  -0.08825   0.59410
N     1.86031   0.41769  -0.43589
C    -1.36043  -2.88596  -0.09170
H    -1.14803  -2.68612   0.95161
C    -0.84149  -4.02122  -0.69311
H    -0.19680  -4.67713  -0.12795
C    -1.16421  -4.32320  -2.00587
H    -0.77802  -5.22281  -2.46268
C    -1.98818  -3.47561  -2.72714
H    -2.23775  -3.70426  -3.75289
C    -2.50301  -2.33447  -2.13517
H    -3.14571  -1.67590  -2.70066
C    -2.20352  -2.03628  -0.81111
C    -2.84118  -0.85707  -0.11878
H    -3.32316  -0.20416  -0.85853
H    -3.61353  -1.21836   0.57341
C    -2.17483   0.74170   1.51871
H    -1.36233   1.26701   2.02774
C    -3.47689   1.08300   2.00917
C    -3.78185   1.93782   3.05193
H    -3.07967   2.46369   3.66543
C    -5.18398   1.96980   3.14536
H    -5.77417   2.52773   3.84236
C    -5.64316   1.14327   2.16011
H    -6.63611   0.86868   1.86255
C     2.65828   3.07779  -1.62335
H     1.66347   2.81826  -1.95831
C     3.44325   3.94275  -2.36281
H     3.05946   4.36365  -3.28001
C     4.71666   4.27170  -1.92639
H     5.32836   4.94936  -2.50336
C     5.20409   3.73162  -0.74908
H     6.19601   3.98587  -0.40558
C     4.42255   2.85998  -0.00923
H     4.80598   2.43728   0.90889
C     3.14586   2.53023  -0.44114
C     2.26934   1.58471   0.34130
H     2.78439   1.23037   1.24471
H     1.34880   2.11565   0.65651
C     2.73146  -0.16148  -1.17103
H     3.76117   0.19963  -1.20489
C     2.43875  -1.28165  -2.00396
C     1.24605  -1.89492  -2.33153
H     0.26206  -1.61274  -1.97986
C     1.57355  -2.91271  -3.24651
H     0.89710  -3.58979  -3.72404
C     2.92885  -2.85561  -3.40844
H     3.60222  -3.43995  -4.00470
O    -0.52061   0.84369  -1.31896
