35

Ni    0.00000   0.00000   0.00000
N     1.84950   0.88813   0.14825
C     2.20769   1.13044   1.50637
C     2.84431   2.29404   1.90127
N     1.06515  -0.92051   2.03050
C     2.70582   1.60498   4.19191
C     1.80876   0.18667   2.46664
C     2.05507   0.44541   3.80800
C     3.10462   2.52778   3.24154
H     2.89311   1.79087   5.23848
H     3.12089   3.02926   1.15824
H     1.55072  -1.51837   1.36159
H     1.96544   1.73246  -0.41017
H     0.69942  -1.46791   2.80043
H     1.71804  -0.26085   4.55369
H     3.60401   3.43627   3.54042
H     2.39536   0.12968  -0.27380
N    -1.84962  -0.88788  -0.14822
C    -2.20786  -1.13028  -1.50631
C    -2.84450  -2.29390  -1.90111
C    -3.10482  -2.52772  -3.24137
C    -2.70596  -1.60502  -4.19180
C    -2.05514  -0.44545  -3.80799
C    -1.80885  -0.18660  -2.46664
N    -1.06508   0.92048  -2.03055
Cl    0.91929  -1.62595  -1.03550
H    -1.55050   1.51837  -1.36157
H    -0.69938   1.46787  -2.80050
H    -1.71804   0.26071  -4.55375
H    -2.89322  -1.79101  -5.23837
H    -3.60422  -3.43623  -3.54018
H    -3.12106  -3.02907  -1.15803
H    -1.96551  -1.73219   0.41023
H    -2.39544  -0.12942   0.27385
O    -0.71039   1.25637   0.79961
