24

Ti    0.00000   0.00000   0.00000
Cl    2.02066  -0.13457   0.77335
Cl   -0.90862   1.37788   1.40387
S    -2.48361  -0.19710  -1.28433
S     0.70770  -1.84140  -1.99257
O    -0.67839  -1.50602   0.44254
C    -2.66854  -1.94352  -0.78636
C    -1.33942  -2.50560  -0.22038
C    -0.39564  -3.11394  -1.28912
C    -0.03714  -1.38433  -3.61741
C    -1.55027  -1.39151  -3.75474
C    -2.28562  -0.22429  -3.11823
H    -3.07295  -2.53419  -1.60520
H    -3.40029  -1.90545   0.02230
H    -1.59932  -3.31528   0.48894
H     0.28914  -3.80407  -0.79347
H    -0.92319  -3.64196  -2.08025
H     0.39606  -2.07929  -4.33756
H     0.36014  -0.38345  -3.79337
H    -1.96430  -2.34135  -3.41249
H    -1.75902  -1.33431  -4.82789
H    -1.76612   0.71380  -3.31988
H    -3.29905  -0.17193  -3.51788
O     0.28162   1.06000  -1.23272
