45

Ni    0.00000   0.00000   0.00000
C     1.28018   2.61590   1.36239
S     1.43600   0.83541   1.70727
C     0.32624   0.68344   3.15640
N    -0.61522   4.21240   0.98836
C    -0.09133   2.95690   0.90478
N    -0.92348   2.09970   0.38108
C    -2.06325   2.80410   0.07047
C    -3.25268   2.38271  -0.51129
C    -4.23180   3.33569  -0.69603
C    -4.04688   4.66696  -0.31639
C    -2.87016   5.10180   0.26111
C    -1.88061   4.15172   0.44730
H     2.00305   2.79930   0.56123
H     1.56863   3.17618   2.25415
H    -0.42936   1.46735   3.09020
H     0.92552   0.82476   4.05894
H    -0.13782   5.04112   1.30105
H    -3.38304   1.35746  -0.81686
H    -5.16787   3.04932  -1.15052
H    -4.84355   5.37649  -0.48303
H    -2.72619   6.13272   0.54824
Br   -1.41555  -0.73149  -1.57484
S    -1.43600  -0.83542   1.70727
N     0.92348  -2.09970   0.38108
C    -0.32624  -0.68344   3.15640
C    -1.28018  -2.61591   1.36239
C     0.09133  -2.95690   0.90478
C     2.06325  -2.80410   0.07047
H     0.42936  -1.46735   3.09020
H    -0.92552  -0.82476   4.05894
H    -2.00306  -2.79930   0.56123
H    -1.56863  -3.17618   2.25415
N     0.61522  -4.21241   0.98836
C     3.25268  -2.38271  -0.51129
C     1.88061  -4.15172   0.44730
H     0.13782  -5.04112   1.30105
C     4.23180  -3.33569  -0.69603
H     3.38304  -1.35746  -0.81686
C     2.87016  -5.10180   0.26111
C     4.04688  -4.66696  -0.31639
H     5.16787  -3.04932  -1.15052
H     2.72619  -6.13272   0.54824
H     4.84355  -5.37649  -0.48303
O     1.04256   0.53875  -1.15988
