66

Cu    0.00000   0.00000   0.00000
P    -0.81853  -1.54986   1.43363
C    -0.59293  -1.37699   3.23392
C     0.40594  -0.51472   3.67300
H     0.98644   0.04338   2.95114
C     0.65342  -0.37695   5.02741
H     1.43058   0.29195   5.36509
C    -0.09535  -1.09695   5.94280
H     0.09513  -0.99003   7.00056
C    -1.09042  -1.95872   5.50579
H    -1.67142  -2.52131   6.22246
C    -1.34007  -2.10556   4.15492
H    -2.11502  -2.77814   3.81303
C    -0.12805  -3.21838   1.19403
C    -0.83753  -4.39633   1.40256
H    -1.87205  -4.36271   1.71567
C    -0.21552  -5.61545   1.20327
H    -0.76956  -6.52997   1.35921
C     1.11240  -5.66863   0.80980
H     1.58923  -6.62531   0.65488
C     1.82744  -4.49706   0.61861
H     2.86388  -4.53424   0.31746
C     1.20904  -3.27484   0.80862
H     1.75865  -2.35450   0.66028
C    -2.60646  -1.74373   1.23421
C    -3.46345  -0.91344   1.95703
H    -3.06111  -0.29702   2.75094
C    -4.81211  -0.87880   1.66311
H    -5.46995  -0.23859   2.23294
C    -5.32041  -1.65538   0.63306
H    -6.37516  -1.62471   0.40312
C    -4.47277  -2.46617  -0.10395
H    -4.86393  -3.06707  -0.91271
C    -3.12141  -2.50252   0.18372
H    -2.45935  -3.12769  -0.40241
N    -1.70448   1.01079  -0.32184
C    -2.13678   1.97844   0.47306
H    -1.40022   2.40108   1.14378
C    -3.43898   2.43759   0.45450
H    -3.74804   3.23244   1.11390
C    -4.33110   1.85423  -0.43917
H    -5.35781   2.18488  -0.48520
C    -3.88625   0.84260  -1.26638
H    -4.56600   0.36801  -1.95504
C    -2.55395   0.43462  -1.19144
C    -1.99519  -0.65889  -1.98003
C    -2.68023  -1.33598  -2.99218
H    -3.66593  -1.02109  -3.29464
C    -2.08762  -2.42399  -3.59629
H    -2.61745  -2.97756  -4.35773
C    -0.80740  -2.83004  -3.20209
C    -0.17630  -2.05716  -2.23096
H     0.83761  -2.27475  -1.92238
N    -0.74910  -1.02548  -1.64392
C    -0.15111  -4.01053  -3.76834
C     0.59122  -4.85736  -2.94646
H     0.66518  -4.64908  -1.88882
C     1.20899  -5.97599  -3.47224
H     1.77702  -6.62662  -2.82406
C     1.10125  -6.26200  -4.82326
H     1.58825  -7.13399  -5.23328
C     0.36774  -5.42464  -5.64751
H     0.28534  -5.64093  -6.70246
C    -0.25857  -4.30883  -5.12508
H    -0.81271  -3.64835  -5.77628
O     1.55694   0.53273   0.12102
