33

Pt    0.00000   0.00000   0.00000
S     2.60140  -0.70817  -0.04520
S     0.81238   1.87463  -1.66086
C    -1.96838   0.57071  -0.06738
C    -0.52458  -1.59388   1.17677
C     0.29742   1.13798   1.68520
C     3.24098   0.51656  -1.24185
C     2.24885   0.95794  -2.29892
C     2.69115  -2.23872  -1.04578
C     2.66561  -3.44882  -0.13404
C     1.63222   3.29932  -0.87510
H    -2.01604   1.36566  -0.81502
H    -2.34807   0.93290   0.88632
H    -2.56664  -0.27540  -0.40428
H    -0.71598  -2.42863   0.50036
H    -1.40903  -1.41684   1.78671
H     0.32155  -1.82514   1.82784
H    -0.00561   2.16732   1.48712
H     1.36497   1.12311   1.91479
H    -0.23864   0.79487   2.56658
H     4.11143   0.06326  -1.72009
H     3.58048   1.35956  -0.63774
H     2.74338   1.59979  -3.03181
H     1.80471   0.09930  -2.80843
H     3.62816  -2.18623  -1.60213
H     1.83754  -2.24186  -1.72690
H     2.76217  -4.35249  -0.73192
H     1.72526  -3.49497   0.40915
H     3.48320  -3.41320   0.58385
H     0.84731   4.01412  -0.65074
H     2.33256   3.73357  -1.58286
H     2.13369   3.01075   0.04310
O    -0.18133  -0.81838  -1.42122
