61

Pd    0.00000   0.00000   0.00000
N     1.00933   0.38478   1.73835
N     0.12300   2.30822  -0.01100
C    -0.06239  -2.03702   0.21297
H    -0.49096  -2.53051  -0.66106
H    -0.68970  -2.26221   1.08815
H     0.95653  -2.41581   0.36851
C     1.66840   1.58166   1.70866
C     1.27167   2.58317   0.77527
C     1.97429   3.76560   0.70850
H     1.67018   4.53376   0.01538
C     3.07396   3.99874   1.54106
H     3.60820   4.93299   1.45538
C     3.45060   3.07081   2.47167
H     4.28399   3.25288   3.13325
C     2.75320   1.85176   2.58489
C     3.09617   0.87278   3.54080
H     3.91393   1.05994   4.22052
C     2.37591  -0.29079   3.58669
H     2.59325  -1.05812   4.31274
C     1.34948  -0.49629   2.65910
H     0.78739  -1.42024   2.67917
C    -1.10340   2.57584   0.77057
H    -1.22305   3.66092   0.92436
H    -1.01054   2.09617   1.75262
C    -2.25991   2.00210   0.00270
C    -2.77716   0.73466   0.34498
H    -2.42610   0.23432   1.25084
C    -3.76656   0.17655  -0.41704
H    -4.18195  -0.78631  -0.15842
C    -4.23467   0.82670  -1.57878
C    -5.20178   0.22836  -2.41228
H    -5.59878  -0.73628  -2.13071
C    -5.61430   0.84182  -3.56133
H    -6.35073   0.37341  -4.19782
C    -5.06679   2.07814  -3.93305
H    -5.37987   2.54121  -4.85745
C    -4.13685   2.69135  -3.14066
H    -3.70822   3.63515  -3.44270
C    -3.71144   2.09813  -1.93372
C    -2.73460   2.69547  -1.09141
C    -2.15128   4.02157  -1.37960
C    -2.96600   5.18255  -1.46441
C    -4.35232   5.15644  -1.19603
H    -4.81186   4.22350  -0.90675
C    -5.10591   6.29249  -1.28920
H    -6.16491   6.25776  -1.07962
C    -4.51554   7.51285  -1.65188
H    -5.12871   8.39869  -1.72906
C    -3.17235   7.57805  -1.89052
H    -2.70369   8.51612  -2.15266
C    -2.36365   6.42656  -1.79044
C    -0.97046   6.48281  -1.99650
H    -0.52122   7.42727  -2.26804
C    -0.19952   5.36659  -1.83910
H     0.86959   5.42469  -1.99357
C    -0.77726   4.12839  -1.51115
C     0.07670   2.89781  -1.36938
H     1.10283   3.09260  -1.69078
H    -0.33804   2.11782  -2.02804
O    -0.51962  -0.19075  -1.55438
