61

Zr    0.00000   0.00000   0.00000
Cl    1.29350  -1.88388  -0.52004
C    -0.74532   1.93876  -1.23925
C    -1.02853   0.84163  -2.09765
H    -2.01241   0.55284  -2.44715
C     0.19499   0.28755  -2.52028
H     0.31280  -0.51459  -3.23876
C     1.24434   1.03179  -1.93298
H     2.29899   0.90424  -2.14270
C     0.67241   2.05669  -1.15020
H     1.21024   2.86035  -0.66368
C    -1.74066   2.76155  -0.52561
C    -2.83888   2.17914  -0.02044
H    -3.61293   2.73206   0.48012
H    -2.98430   1.11212  -0.10767
N    -1.37419   4.09210  -0.33724
C    -2.11677   4.90875   0.59708
H    -2.41278   4.28921   1.44584
H    -3.02695   5.32548   0.13642
C    -1.22512   6.04907   1.09050
H    -0.37296   5.62352   1.62459
H    -1.78666   6.67153   1.78867
C    -0.71643   6.88228  -0.08075
H    -1.55954   7.37017  -0.57524
H    -0.03931   7.66056   0.27592
C    -0.00470   5.96962  -1.07393
H     0.31648   6.53222  -1.95141
H     0.88008   5.53632  -0.60362
C    -0.94380   4.84573  -1.50080
H    -1.81733   5.28284  -2.01270
H    -0.44478   4.17283  -2.19881
C     1.31176   0.94100   1.81151
C     1.10723  -0.41658   2.17943
H     1.88788  -1.15300   2.32795
C    -0.26355  -0.59610   2.44925
H    -0.72183  -1.50258   2.82616
C    -0.91896   0.64191   2.25267
H    -1.96058   0.84304   2.47003
C     0.04808   1.59555   1.87050
H    -0.11555   2.65933   1.75636
C     2.59472   1.54456   1.40154
C     3.42488   0.84899   0.61013
H     4.38686   1.21886   0.30477
H     3.14730  -0.13274   0.25299
N     2.77766   2.86718   1.80460
C     3.87099   3.62460   1.23404
H     3.95407   3.37143   0.17505
H     4.82806   3.38453   1.72503
C     3.58775   5.12034   1.37529
H     2.68705   5.36626   0.80915
H     4.41927   5.68574   0.95196
C     3.37635   5.49177   2.83859
H     4.29743   5.31280   3.39807
H     3.12836   6.55086   2.92791
C     2.25721   4.63063   3.41365
H     2.12183   4.83465   4.47655
H     1.32088   4.85878   2.90113
C     2.59051   3.15550   3.21655
H     3.51069   2.91809   3.77632
H     1.78747   2.52755   3.60409
O    -1.35204  -0.94224  -0.08173
