49

Ni    0.00000   0.00000   0.00000
Br    0.23766   0.04049   2.29067
N    -0.48742   2.76909   0.01381
N     1.59911   2.50328  -0.26432
N     0.02246   4.00773  -0.08319
N    -1.62769  -2.45799   0.37239
N     0.41839  -2.79682  -0.07676
N    -0.12659  -4.01672   0.06006
C     0.44278   1.82190  -0.08861
C     1.29136   3.82793  -0.24787
H     2.00834   4.61369  -0.36555
C    -1.90698   2.54770   0.19233
H    -2.03801   1.44912   0.22100
C    -2.35047   3.15615   1.51685
H    -1.80727   2.70137   2.34293
H    -3.41385   2.99053   1.66518
H    -2.15411   4.22543   1.51187
C    -2.65990   3.12293  -1.00086
H    -2.47642   4.19237  -1.06817
H    -3.72638   2.95096  -0.88623
H    -2.32693   2.64931  -1.92233
C     2.91007   1.91638  -0.39183
H     2.78661   0.92873  -0.85068
H     3.50477   2.54176  -1.06309
C     3.58523   1.78498   0.96953
H     3.72448   2.76356   1.42401
H     4.55544   1.31011   0.85540
H     2.97624   1.17871   1.63685
C    -0.46512  -1.81714   0.10085
C    -1.37034  -3.79213   0.32891
H    -2.10332  -4.55209   0.50394
C    -2.89595  -1.82218   0.63180
H    -2.70218  -0.91772   1.21991
H    -3.50374  -2.50428   1.23159
C    -3.60631  -1.46393  -0.66984
H    -2.97664  -0.81890  -1.27979
H    -4.53371  -0.94167  -0.45287
H    -3.83302  -2.36060  -1.24242
C     1.82759  -2.63063  -0.36381
H     2.00239  -1.53881  -0.38793
C     2.64550  -3.25620   0.75937
H     2.40516  -2.78564   1.71077
H     3.70621  -3.12621   0.56408
H     2.42299  -4.31830   0.82571
C     2.14032  -3.23731  -1.72597
H     1.89176  -4.29570  -1.72010
H     3.19652  -3.12108  -1.95177
H     1.56096  -2.74190  -2.50249
O    -0.15738  -0.02371  -1.64231
