51

Pd    0.00000   0.00000   0.00000
Br    0.11633   2.44501  -0.07309
N     1.68401   0.16125   2.40547
N     2.97696  -0.10337   0.74655
N     2.92928   0.16633   2.91470
N    -2.05701   0.41328  -2.22106
N    -2.95720  -0.29878  -0.43842
N    -3.37610   0.33923  -2.48318
C     3.70276   0.00192   1.89430
H     4.77108  -0.04448   1.93905
C     1.66983   0.00226   1.08504
C     0.52665   0.29602   3.26550
H    -0.35875   0.18496   2.60976
C     0.53612  -0.82499   4.29819
H     0.51300  -1.79363   3.80250
H    -0.33681  -0.74228   4.93924
H     1.43474  -0.76016   4.90678
C     0.53446   1.68015   3.90481
H     1.44205   1.81022   4.48948
H    -0.32641   1.79262   4.55717
H     0.49522   2.45152   3.13791
C     3.49249  -0.39487  -0.57445
H     3.76506  -1.45741  -0.61352
H     4.39278   0.20942  -0.73273
C     2.47395  -0.09434  -1.64171
H     2.31670   0.95941  -1.86047
C     1.87582  -1.05406  -2.33731
H     2.07068  -2.09752  -2.13675
H     1.20583  -0.84274  -3.15483
C    -1.75441   0.02513  -0.98331
C    -3.90649  -0.09195  -1.38709
H    -4.95276  -0.26608  -1.24341
C    -1.15399   0.91621  -3.23430
H    -0.15122   0.90477  -2.78243
C    -1.53973   2.35004  -3.58271
H    -2.56857   2.38115  -3.93263
H    -0.88586   2.72846  -4.36292
H    -1.44061   2.98926  -2.70816
C    -1.21031  -0.00113  -4.45184
H    -0.98617  -1.02901  -4.17096
H    -0.49330   0.32579  -5.19998
H    -2.20826   0.02762  -4.88254
C    -3.17250  -0.70649   0.92790
H    -4.21818  -1.00351   1.04205
H    -2.54221  -1.58420   1.13644
C    -2.81891   0.40202   1.88507
H    -2.21854   1.21106   1.47112
C    -3.19932   0.42579   3.14854
H    -3.80472  -0.35759   3.57463
H    -2.91842   1.22898   3.80662
O    -0.06227  -1.63367   0.22307
