34

Re    0.00000   0.00000   0.00000
N    -0.72776  -1.99840   0.45572
N     0.22875  -0.23106   2.13403
O     2.93668  -0.79349  -0.52430
C    -2.06993  -4.15156   1.44847
H    -2.59291  -4.98211   1.89944
C    -1.22346  -2.91109  -0.38150
H    -1.05797  -2.73715  -1.43664
O    -0.82172  -0.14289  -2.97466
C     0.65871   0.47186   3.17060
N    -0.42960  -1.28651   2.62383
C     1.84456  -0.50148  -0.33789
C    -0.94561  -2.22725   1.76264
C     1.47663   1.66175   2.99929
C     1.73923   2.53485   4.05609
H     1.29865   2.37146   5.02657
C     2.56227   3.62177   3.82330
H     2.78262   4.31928   4.61811
C     3.09806   3.80062   2.55667
H     3.75094   4.63069   2.33942
C     2.76451   2.88676   1.56738
H     3.14146   2.98551   0.55859
N     1.97685   1.85077   1.77759
C    -0.47468  -0.06365  -1.88481
C    -0.44230  -1.27676   3.98206
H    -0.93654  -2.05064   4.53158
N    -1.57246  -3.26049   2.28857
C     0.33429   1.92090  -0.16412
C     0.24340  -0.16284   4.36944
H     0.43649   0.15919   5.37130
O     0.35242   3.05806  -0.27753
C    -1.91973  -4.01661   0.07359
H    -2.32644  -4.73685  -0.61479
O    -1.54030   0.41524   0.42137
