36

Re    0.00000   0.00000   0.00000
N    -1.86219  -0.59083   0.92137
N    -0.88921   1.78064   0.53400
C    -2.16399   1.76009   0.97213
O     1.57779  -0.24834   2.64304
C    -0.11597   5.26832   0.12124
N    -0.71449   6.43296   0.36835
C    -0.06566   7.54251   0.08073
H    -0.59533   8.46039   0.30076
C     1.21083   7.56224  -0.46744
H     1.69799   8.49948  -0.68603
C     1.83431   6.35083  -0.72438
H     2.82565   6.32067  -1.15183
C     1.16401   5.17730  -0.42607
H     1.59830   4.20791  -0.60808
N    -0.27453   2.89987   0.29446
C     1.00300  -0.16263   1.65486
C    -0.88259   4.06424   0.44873
C    -2.71205   0.42377   1.18554
C    -2.85881   2.95936   1.17152
H    -3.87991   2.95413   1.51845
O     2.25659   1.46355  -1.52663
C    -3.57180  -2.14818   1.50254
H    -3.86882  -3.17867   1.60788
C    -4.01723   0.18802   1.61458
H    -4.68196   1.01295   1.81115
C    -2.29158  -1.83877   1.08343
H    -1.58019  -2.62382   0.86197
O     0.73964  -2.81018  -1.07580
C    -4.45538  -1.11209   1.77101
H    -5.46540  -1.31448   2.09173
C    -2.21216   4.14066   0.89982
H    -2.67889   5.10457   1.01321
C     1.47649   0.86977  -0.94164
C     0.53297  -1.76967  -0.64737
O    -0.93970   0.14517  -1.34848
