64

Ag    0.00000   0.00000   0.00000
N    -0.47687  -3.13269   0.20953
N     1.29825  -2.64859  -0.89397
N     2.24848  -0.63715  -1.34119
C     0.21575  -2.09045  -0.27279
C     0.13427  -4.32226  -0.09787
C     1.25142  -4.02313  -0.79491
C    -1.69374  -3.02395   0.93558
C    -2.89450  -3.30852   0.28598
C    -4.07233  -3.22648   1.01172
C    -4.07297  -2.86560   2.35179
C    -2.86283  -2.57853   2.96780
C    -1.66180  -2.64901   2.27907
C    -2.90262  -3.67158  -1.16840
C    -5.35738  -2.75317   3.11265
C    -0.36690  -2.31214   2.95147
C     2.29440  -1.89003  -1.50398
C     3.33187  -2.64089  -2.28809
C     3.16779   0.26832  -1.87380
C     4.24783   0.67785  -1.07983
C     5.09121   1.66076  -1.57202
C     4.87796   2.22072  -2.81787
C     3.81012   1.80638  -3.59091
C     2.94242   0.82383  -3.13990
C     4.42392   0.08160   0.29858
C     5.87159   0.09653   0.78835
C     3.52074   0.82903   1.28393
C     1.73506   0.39514  -3.94262
C     1.94484   0.49565  -5.45360
C     0.53016   1.23701  -3.51327
H    -0.26666  -5.26690   0.20889
H     1.99867  -4.67009  -1.20294
H    -5.00937  -3.44096   0.51866
H    -2.85455  -2.28666   4.00768
H    -2.36750  -2.91875  -1.74706
H    -3.92181  -3.73446  -1.53912
H    -2.41637  -4.63302  -1.33556
H    -5.71102  -1.72241   3.08229
H    -5.21678  -3.02800   4.15538
H    -6.12621  -3.38720   2.67802
H     0.39191  -3.06817   2.75252
H    -0.50447  -2.22476   4.02540
H     0.00532  -1.35266   2.57353
H     3.99324  -1.92750  -2.77471
H     2.86275  -3.26745  -3.04542
H     3.92587  -3.27328  -1.62896
H     5.92377   2.00077  -0.97758
H     5.54247   2.98900  -3.18430
H     3.65151   2.25912  -4.55646
H     4.09604  -0.96471   0.26399
H     6.54018  -0.31986   0.03735
H     5.95707  -0.49979   1.69464
H     6.19453   1.10687   1.02457
H     3.79665   1.87973   1.32381
H     3.61192   0.40454   2.28168
H     2.47359   0.76604   0.97036
H     1.51702  -0.65347  -3.70724
H     1.96787   1.53233  -5.77898
H     1.12357   0.00341  -5.97080
H     2.87582   0.01519  -5.74899
H     0.33296   1.10548  -2.44302
H    -0.35783   0.94357  -4.06947
H     0.72391   2.29169  -3.69294
O    -0.25431   1.58051   0.39978
