32

Re    0.00000   0.00000   0.00000
N     1.61467   1.84622   1.64121
N     0.46903   1.87057   0.93901
C     2.41096   0.71607   1.56151
O     0.91589   0.94148  -2.79527
C     1.77208   2.99713   2.34041
H     2.61871   3.17681   2.96942
C    -1.89580   0.34814  -0.34153
C     0.56279   0.59228  -1.76275
O    -3.01286   0.57370  -0.42197
O    -0.17120  -2.97935  -0.79777
C    -0.10877   3.02700   1.18617
H    -1.05143   3.27996   0.74037
C     0.68028   3.77949   2.06910
H     0.46859   4.75565   2.45215
C    -0.14845  -1.86219  -0.56670
N     1.93624  -0.23496   0.74023
N     2.58827  -1.34988   0.57317
C     3.71230  -1.57826   1.23083
C     4.27565  -0.63892   2.11594
H     5.19101  -0.87288   2.63172
C     3.60000   0.54646   2.27655
H     3.96096   1.31477   2.94036
N     4.31876  -2.79070   1.01361
N     5.48711  -3.09927   1.59892
C     3.86336  -3.81112   0.22927
H     2.93976  -3.72243  -0.30415
C     5.77994  -4.30874   1.19348
H     6.67914  -4.78802   1.52549
C     4.78600  -4.81229   0.32288
H     4.76770  -5.76995  -0.15370
O    -0.39574  -0.44593   1.53852
