38

Re    0.00000   0.00000   0.00000
C     0.85756  -3.33146   2.80125
H     0.32602  -3.87673   3.56414
O    -0.41398   2.69840  -1.45398
O    -2.30429   0.45445   2.00664
N     0.76777  -1.73658   1.03327
C     2.36795  -0.30005  -3.22931
C     2.09465  -1.89808   0.84847
C     2.66099  -1.12095  -0.22812
H     3.70178  -1.27783  -0.50482
N     1.90804  -0.29207  -0.85691
C     2.44482   0.35982  -1.99829
C     2.83916   0.34725  -4.36136
H     2.77313  -0.15132  -5.31688
C     3.38888   1.61261  -4.27677
H     3.74790   2.10688  -5.16660
C     3.48722   2.23878  -3.04916
H     3.92996   3.22104  -2.97850
C     3.02555   1.62647  -1.89227
C     3.16466   2.30110  -0.56577
H     2.19048   2.44388  -0.09890
H     3.64044   3.27180  -0.67677
H     3.76218   1.69821   0.11901
C     1.79429  -1.68201  -3.32027
H     1.68909  -1.98018  -4.35957
H     0.81577  -1.72353  -2.84359
H     2.44159  -2.40493  -2.82137
C     2.85226  -2.77081   1.63003
H     3.91339  -2.85708   1.45388
C     2.22659  -3.49129   2.62748
H     2.78870  -4.16306   3.25781
C     0.17464  -2.44681   1.98403
H    -0.89130  -2.29968   2.10147
C    -1.03495  -0.97629  -1.32280
C    -0.31091   1.69175  -0.92127
C    -1.52932   0.27058   1.18993
O    -1.69125  -1.56590  -2.06051
O     0.79603   0.69228   1.26869
