62

Ir    0.00000   0.00000   0.00000
As   -1.14379   0.75533   1.94549
Cl   -2.26850   0.05541  -0.71713
C     1.88749  -0.46977  -1.15582
C     0.90764  -1.41579  -1.51830
C     0.51719  -2.13356  -0.32534
C     1.30269  -1.64804   0.76244
C     2.10323  -0.57023   0.26920
C     2.65575   0.44645  -2.04883
C     0.41276  -1.75184  -2.88674
C    -0.33835  -3.35924  -0.34462
C     1.34312  -2.21046   2.14739
C     3.19554   0.13760   1.00198
C    -2.24208   2.34961   1.94449
C    -1.76239   3.58247   2.36680
C    -2.58777   4.69395   2.33638
C    -3.89180   4.58094   1.88511
C    -4.37530   3.35140   1.46841
C    -3.55533   2.23780   1.49984
C    -2.40346  -0.46537   2.77987
C    -2.62206  -1.73260   2.26218
C    -3.53101  -2.58756   2.86346
C    -4.22672  -2.17611   3.98748
C    -4.02215  -0.90607   4.50445
C    -3.11634  -0.05223   3.90125
C     0.12344   1.09300   3.38624
C     0.09280   0.41742   4.60016
C     1.06344   0.65756   5.55932
C     2.07736   1.56755   5.31223
C     2.12913   2.22796   4.09495
C     1.16353   1.98437   3.13414
H     2.32829   0.35579  -3.08109
H     3.71929   0.20994  -1.99468
H     2.52140   1.48241  -1.73785
H     0.82648  -2.71005  -3.20686
H     0.69914  -0.99055  -3.60730
H    -0.67291  -1.83305  -2.89033
H    -0.52256  -3.73083   0.66058
H     0.16367  -4.14411  -0.91351
H    -1.29286  -3.15752  -0.82897
H     2.06194  -3.03068   2.19357
H     0.36730  -2.59223   2.44730
H     1.64645  -1.45036   2.86680
H     3.28133   1.16460   0.65442
H     4.14879  -0.36416   0.82316
H     3.00904   0.14939   2.07399
H    -0.73841   3.67551   2.70929
H    -2.20831   5.65237   2.66052
H    -4.53036   5.45180   1.85497
H    -5.39120   3.26073   1.11217
H    -3.92073   1.27416   1.15968
H    -2.09149  -2.02589   1.36498
H    -3.70210  -3.57218   2.45256
H    -4.93683  -2.84049   4.45760
H    -4.57331  -0.58147   5.37543
H    -2.95621   0.94923   4.29402
H    -0.69312  -0.30330   4.79668
H     1.02896   0.12909   6.50137
H     2.83141   1.75371   6.06287
H     2.92812   2.92662   3.89230
H     1.21272   2.47106   2.16530
O     0.10787   1.63845  -0.16227
