50

Rh    0.00000   0.00000   0.00000
As   -2.28502  -0.40730   0.54704
Cl   -1.00171   1.07622  -1.80911
C     1.98032   0.98704  -0.17545
C     2.18469  -0.33558   0.27967
C     1.46909  -0.49419   1.52451
C     0.90595   0.77461   1.87687
C     1.16608   1.67664   0.80242
C     2.58420   1.65496  -1.36897
H     3.07931   0.93481  -2.01511
H     3.31446   2.39791  -1.04290
H     1.81684   2.16450  -1.95076
C     3.04661  -1.39536  -0.32541
H     3.82252  -1.68224   0.38560
H     3.51808  -1.04403  -1.23937
H     2.45821  -2.28203  -0.56277
C     1.57185  -1.70305   2.39978
H     2.55266  -1.72725   2.87926
H     1.45871  -2.61092   1.81036
H     0.81034  -1.69473   3.17664
C     0.28675   1.11343   3.19603
H    -0.35342   1.98964   3.11983
H     1.07761   1.32889   3.91755
H    -0.30363   0.28208   3.58118
C     0.91412   3.15078   0.76739
H     1.86137   3.68133   0.88078
H     0.24852   3.46267   1.56863
H     0.47768   3.44398  -0.18635
C    -3.15414   0.98582   1.65147
H    -4.21855   0.74910   1.75357
H    -2.70775   0.96746   2.65065
C    -2.97899   2.35968   1.01773
H    -3.50620   2.40872   0.06521
H    -1.92296   2.54382   0.81586
H    -3.36034   3.14825   1.66646
C    -3.68351  -0.58788  -0.81613
H    -4.63043  -0.66862  -0.26463
H    -3.69340   0.34705  -1.38387
C    -3.50962  -1.76385  -1.76500
H    -3.40363  -2.69916  -1.21334
H    -2.61420  -1.62402  -2.36701
H    -4.36630  -1.84303  -2.43359
C    -2.51053  -2.01007   1.68318
H    -2.06451  -2.84573   1.13597
H    -1.90259  -1.84745   2.58044
C    -3.94337  -2.33931   2.08149
H    -4.55325  -2.54402   1.20271
H    -4.39573  -1.51624   2.63547
H    -3.96233  -3.22433   2.71698
O    -0.23669  -1.48838  -0.67172
