42

Rh    0.00000   0.00000   0.00000
Cl    2.17874  -0.79612  -0.05823
Cl    0.26137   1.11888  -1.97281
S    -0.18379  -1.12251   2.01164
S     0.73522   1.88343   0.95631
O    -0.58710  -2.51064   1.86258
O     0.79308   1.82552   2.41249
N    -0.61180  -1.64530  -1.02374
N    -0.40546  -3.24093  -2.53985
C    -1.71651  -2.46046  -0.91642
C    -1.58598  -3.48375  -1.87874
C    -2.54142  -4.47931  -2.02911
C    -3.63562  -4.42616  -1.19252
C    -3.77740  -3.41091  -0.24344
C    -2.83403  -2.41895  -0.08860
C     0.12713  -2.13946  -1.99387
C     0.14677  -4.02382  -3.60768
C     1.30837  -1.13837   3.04824
C    -1.31604  -0.36156   3.21209
C    -0.19128   3.37989   0.52872
C     2.36966   2.41505   0.38250
H    -2.43112  -5.25759  -2.76811
H    -4.40231  -5.18157  -1.27412
H    -4.65465  -3.40555   0.38489
H    -2.95780  -1.63256   0.63525
H     1.05965  -1.71498  -2.32179
H    -0.54239  -4.04573  -4.45410
H     0.32430  -5.04688  -3.27076
H     1.08944  -3.58351  -3.92534
H     1.55417  -0.11226   3.29340
H     2.10627  -1.60047   2.47700
H     1.08246  -1.72553   3.93034
H    -0.89375   0.59780   3.48642
H    -1.40121  -1.02878   4.06143
H    -2.27901  -0.22335   2.73273
H    -0.18087   3.47631  -0.55096
H     0.28592   4.22054   1.01856
H    -1.20939   3.25485   0.88198
H     2.31011   2.54487  -0.69220
H     3.08131   1.63159   0.62141
H     2.62521   3.33644   0.89241
O    -1.52957   0.59217   0.17958
