39

Pt    0.00000   0.00000   0.00000
Cl    0.73510   2.13719   0.08666
Cl   -0.59633  -2.28467  -0.08895
C     3.51879  -3.83160  -0.25421
N     1.70747  -0.73096   0.80141
C     1.89380  -0.78463   2.13135
C     1.23228   0.24888   2.96579
N     2.61633  -1.70674   2.72928
C     3.15214  -2.69490   2.01059
N     3.75546  -3.68620   2.72037
C     3.02612  -2.70684   0.60788
C     2.30526  -1.66378   0.05715
S     0.51654  -6.34328   0.07776
C     1.31149  -4.85496   0.02472
N     2.63026  -4.98467  -0.15418
C     3.05317  -6.28684  -0.26723
C     4.48969  -6.61316  -0.49597
C     2.02614  -7.17461  -0.17379
C     2.06000  -8.66327  -0.17788
C     2.27326  -9.19639   1.24680
O     1.24279  -8.68083   2.05384
H     1.26382  -9.09909   2.91976
H     3.54751  -3.49988  -1.29792
H     4.52356  -4.14303   0.03927
H     0.14807   0.14601   2.86960
H     1.49192   1.24044   2.59569
H     1.52105   0.13430   4.00553
H     4.45580  -4.25877   2.28314
H     3.88045  -3.48343   3.69903
H     2.18485  -1.58065  -1.01635
H     0.76454  -3.90809   0.06274
H     4.59836  -7.67447  -0.69527
H     5.09285  -6.37480   0.38017
H     4.88162  -6.06103  -1.34869
H     2.85112  -9.04004  -0.82649
H     1.10023  -9.03401  -0.53767
H     2.25191 -10.29351   1.22509
H     3.25591  -8.87239   1.62164
O    -1.46371   0.45184  -0.61310
