24

Pt    0.00000   0.00000   0.00000
Cl   -2.10776   1.05558   0.28546
Cl    2.08618  -1.10626  -0.20589
O     0.68933   0.86005   1.76169
O     0.64265   0.57068   3.94587
N     0.65268   1.51490  -1.12291
N    -0.57189  -1.50690   1.28676
C     0.57898   2.74554  -0.61673
C     1.06924   3.84327  -1.30184
C     1.65444   3.65706  -2.54471
C     1.73097   2.37035  -3.05436
C     1.22034   1.31961  -2.31240
C    -0.71800  -0.90106   2.62010
C     0.30452   0.26566   2.82986
H     0.12590   2.85002   0.36132
H     0.99152   4.82363  -0.86047
H     2.04531   4.49488  -3.10132
H     2.18172   2.17393  -4.01368
H     1.26340   0.30187  -2.67921
H     0.19690  -2.18786   1.28523
H    -1.42820  -1.98930   0.99930
H    -0.59117  -1.63317   3.42196
H    -1.71005  -0.44687   2.70394
O    -0.59743  -0.78110  -1.32494
