55

Pt    0.00000   0.00000   0.00000
N    -0.40704   1.98836   0.01855
N    -1.52417   2.04312   2.15094
N    -0.51387  -0.11196   1.92285
N    -0.04176  -2.42179   2.30767
N     0.72755  -1.89995   0.08308
N    -2.47756   0.81606   4.76227
N    -1.72555  -1.89191   4.78008
C     0.07741   2.74394  -0.98072
H     0.60102   2.22470  -1.77122
C    -0.07336   4.11045  -1.05517
H     0.34308   4.64407  -1.89363
C    -0.76791   4.77262  -0.04632
H    -0.91909   5.84058  -0.08245
C    -1.24459   4.02424   0.99826
H    -1.77264   4.45718   1.83151
C    -1.03908   2.63042   1.03688
C    -1.28217   0.83579   2.53025
C    -1.80181   0.26649   3.77484
C    -1.35571  -1.06468   3.82472
C    -0.55923  -1.28313   2.61639
C     0.63822  -2.70410   1.17715
C     1.26600  -3.96632   1.20327
H     1.13609  -4.54966   2.09957
C     2.00696  -4.40321   0.13683
H     2.49104  -5.36765   0.15038
C     2.11509  -3.55902  -0.96518
H     2.68879  -3.83932  -1.83322
C     1.47082  -2.34278  -0.94511
H     1.54089  -1.69281  -1.80605
C    -2.77942   0.01562   5.78457
C    -2.49231  -1.37528   5.74056
C    -3.38638   0.67413   6.94550
C    -4.29906   1.70697   6.74221
H    -4.54977   1.98691   5.73070
C    -4.87390   2.35045   7.82158
H    -5.58903   3.14284   7.65655
C    -4.53154   1.98343   9.11273
H    -4.98099   2.48630   9.95620
C    -3.60216   0.97668   9.32087
H    -3.31931   0.70155  10.32620
C    -3.03054   0.32276   8.24645
H    -2.29434  -0.44969   8.41315
C    -3.02612  -2.33692   6.70982
C    -4.32847  -2.23259   7.19539
H    -4.96742  -1.43094   6.85569
C    -4.80936  -3.16639   8.09293
H    -5.82036  -3.08085   8.46303
C    -4.00226  -4.21079   8.51533
H    -4.38064  -4.93378   9.22276
C    -2.71433  -4.33167   8.01959
H    -2.08765  -5.15201   8.33721
C    -2.22981  -3.40605   7.11529
H    -1.23166  -3.49103   6.71422
O     0.03161   0.00120  -1.64970
