45

Cr    0.00000   0.00000   0.00000
N     0.89228  -0.82258   1.06993
N    -1.66469  -0.20115   0.62635
N     0.84419   1.57525  -0.10033
C    -2.10163  -0.96676   1.78030
H    -3.19061  -0.87488   1.89691
C     2.07112   1.97732   0.56439
H     2.31507   3.01545   0.29841
C    -2.70917   0.46541  -0.11536
H    -2.23339   0.99355  -0.95813
C     0.24507   2.56660  -0.96261
H    -0.66339   2.12096  -1.40024
C    -1.75877  -2.44760   1.58346
H    -2.24848  -2.84085   0.69375
H    -2.08054  -3.02522   2.44610
H    -0.67949  -2.54700   1.46664
C    -1.43606  -0.43757   3.05325
H    -0.35806  -0.55200   2.95531
H    -1.77988  -0.99986   3.91721
H    -1.66958   0.61596   3.20032
C     1.90526   1.89711   2.08394
H     1.08350   2.52997   2.41578
H     2.81919   2.21600   2.57772
H     1.69075   0.86518   2.35597
C     3.22673   1.07712   0.11294
H     2.99368   0.04520   0.37635
H     4.14840   1.37362   0.60697
H     3.36792   1.14400  -0.96494
C    -3.70024  -0.52798  -0.74328
H    -3.16423  -1.27144  -1.33239
H    -4.38499   0.00504  -1.39913
H    -4.28308  -1.04122   0.01812
C    -3.44896   1.52771   0.71323
H    -4.06778   1.07017   1.48186
H    -4.09169   2.11986   0.06546
H    -2.73244   2.19171   1.19710
C     1.15268   2.93023  -2.14894
H     2.04288   3.46079  -1.81916
H     0.60915   3.56866  -2.84183
H     1.45972   2.02821  -2.67717
C    -0.19992   3.82837  -0.20614
H    -0.79613   3.55288   0.66401
H    -0.80271   4.45675  -0.85817
H     0.65505   4.40923   0.13251
O     0.12754  -0.77218  -1.45257
