45

Cr    0.00000   0.00000   0.00000
N    -0.68063   0.34821   1.61185
C    -2.09795   0.10218   1.70065
H    -2.42799  -0.29459   0.72904
C    -2.88638   1.40533   1.90918
H    -2.68246   1.84069   2.88472
H    -3.95347   1.20753   1.83564
H    -2.60904   2.12355   1.13810
C    -2.46808  -0.94273   2.76533
H    -1.87947  -1.84787   2.62187
H    -3.52298  -1.19570   2.68424
H    -2.28423  -0.56685   3.76924
C    -0.04158   0.88478   2.79828
H    -0.77970   0.98465   3.60604
C     1.06141  -0.06963   3.26404
H     0.65058  -1.05622   3.47155
H     1.53512   0.31094   4.16509
H     1.79968  -0.15277   2.47080
C     0.55074   2.26506   2.50371
H     1.24769   2.16790   1.67223
H     1.07527   2.64611   3.37575
H    -0.23247   2.96690   2.22505
N     0.27699  -1.69070  -0.51052
C    -0.90527  -2.51013  -0.60081
H    -1.75064  -1.91186  -0.23413
C    -1.23728  -2.87733  -2.05563
H    -1.29012  -1.97043  -2.65714
H    -2.19938  -3.38309  -2.09943
H    -0.48239  -3.53518  -2.47989
C    -0.83540  -3.76510   0.28536
H    -0.13254  -4.49409  -0.11061
H    -1.81561  -4.23324   0.34211
H    -0.51681  -3.49031   1.29042
C     1.52016  -2.31741  -0.92236
H     1.33162  -3.36082  -1.20965
C     2.10237  -1.57848  -2.13199
H     1.40117  -1.59302  -2.96435
H     3.03269  -2.04487  -2.44616
H     2.29226  -0.54406  -1.84913
C     2.52847  -2.30514   0.22801
H     2.72419  -1.26899   0.49445
H     3.45521  -2.78284  -0.07763
H     2.12832  -2.82612   1.09530
N     1.49310   0.60743   0.09360
O    -0.82184   0.80642  -1.18185
