69

Ti    0.00000   0.00000   0.00000
Cl   -0.22763  -0.53684   2.10141
S     1.25558   4.06560   3.11581
S    -4.47018   0.77427   3.95985
Si   -1.49428  -1.83670  -1.57902
N     0.03853  -1.70242  -0.77694
N    -2.09854   2.67427   1.20435
C    -0.03698   3.25961  -1.27691
H    -0.03252   4.15609  -0.67588
C    -0.84321   1.00905  -1.82456
C    -1.75944   0.02883  -1.32067
C    -0.81469   2.14166  -0.91992
C    -1.69853   1.83224   0.17887
C     1.15633  -2.62399  -0.77469
C    -2.23095   0.54451  -0.08321
H    -2.98102   0.04219   0.51336
C     0.73289   2.10442  -3.26455
H     1.35213   2.11943  -4.14933
C    -0.04313   1.00935  -2.98399
H    -0.07673   0.16132  -3.65551
C    -1.15365   3.57695   1.83251
H    -0.81121   4.31217   1.10032
H    -1.68244   4.12396   2.61583
C     0.72083   3.22764  -2.42118
H     1.32009   4.08631  -2.68488
C     1.86777  -2.59122   0.59039
H     2.26633  -1.59346   0.80057
H     1.16705  -2.86974   1.37983
H     2.69532  -3.29798   0.59589
C     0.05710   2.87064   2.44743
H     0.58080   2.25457   1.70775
H    -0.23729   2.24104   3.28704
C     0.68169  -4.05988  -1.03297
H    -0.04579  -4.34703  -0.27802
H     0.22018  -4.13611  -2.01305
H     1.52425  -4.74547  -0.98966
C    -3.25881   2.32104   1.99326
H    -3.73078   3.25036   2.32935
H    -3.97320   1.81482   1.34021
C     2.23362   4.43209   1.60887
H     2.40429   3.48474   1.09632
H     1.64479   5.09499   0.97327
C     2.14146  -2.20185  -1.88039
H     1.66669  -2.29818  -2.85467
H     2.43569  -1.16018  -1.73843
H     3.03132  -2.82616  -1.85917
C    -4.73972  -0.72384   2.94910
H    -5.74161  -1.04988   3.22717
H    -4.75078  -0.42798   1.89964
C    -2.95209   1.45093   3.21575
H    -2.49238   2.04208   4.00670
H    -2.29087   0.62280   2.96212
C    -2.77381  -2.82932  -0.55706
H    -2.59479  -2.69859   0.50744
H    -3.78772  -2.50881  -0.77376
H    -2.71574  -3.88999  -0.77682
C    -1.56366  -2.39166  -3.40818
H    -2.35220  -1.86888  -3.93907
H    -0.63286  -2.20839  -3.93444
H    -1.77563  -3.45313  -3.47435
C    -3.72390  -1.81739   3.22084
H    -4.00036  -2.71707   2.67353
H    -2.72137  -1.52127   2.91439
H    -3.70334  -2.04974   4.28283
C     3.54610   5.08630   1.99364
H     4.12949   5.29904   1.10014
H     3.36553   6.01726   2.52639
H     4.12030   4.42631   2.63900
O     1.50476   0.67654  -0.02229
