45

Hg    0.00000   0.00000   0.00000
Cl   -2.15042   0.08488  -0.97899
S     1.45256  -1.30200  -1.87194
N     0.75178  -3.10013  -3.70337
N    -0.96230  -2.10554  -2.76242
H    -1.48424  -1.40899  -2.21736
C     0.36186  -2.19422  -2.79671
C    -0.39122  -3.71851  -4.35062
H    -0.42184  -4.79027  -4.13091
H    -0.32208  -3.58935  -5.43534
C    -1.58894  -2.97038  -3.73933
H    -2.13165  -2.37569  -4.48024
H    -2.29836  -3.64237  -3.24921
C     2.10135  -3.51808  -3.96480
H     2.75795  -2.75831  -3.53576
H     2.24975  -3.54780  -5.04959
C     2.42936  -4.88413  -3.35348
H     3.46264  -5.12371  -3.60859
H     1.79236  -5.65176  -3.79860
C     2.26085  -4.88158  -1.83985
H     2.54682  -5.84449  -1.42408
H     1.22793  -4.68315  -1.56333
H     2.88102  -4.10972  -1.39217
S     0.38935  -1.89514   1.88656
N     2.31455  -2.19218   3.69898
N     2.30290  -0.20906   2.76114
H     1.96053   0.59056   2.21520
C     1.71758  -1.39999   2.79850
C     3.42899  -1.51370   4.33580
H     4.36958  -2.02390   4.10581
H     3.29362  -1.51031   5.42195
C     3.37540  -0.10143   3.72709
H     3.13994   0.66499   4.47164
H     4.30736   0.17678   3.22798
C     2.00576  -3.57127   3.95826
H     1.01424  -3.75880   3.54097
H     1.97114  -3.71929   5.04293
C     3.01753  -4.53516   3.32992
H     2.71220  -5.55102   3.58477
H     4.00631  -4.36858   3.76323
C     3.08055  -4.38203   1.81596
H     3.76632  -5.10943   1.38879
H     3.42148  -3.38715   1.53884
H     2.09655  -4.53178   1.37993
O     0.70319   1.33205   0.67354
