43

Co    0.00000   0.00000   0.00000
P     2.09909   0.65908   0.28479
F     1.47130  -2.18862  -0.92963
F    -0.54175  -2.64091  -0.36802
F     0.94355  -2.25115   1.14297
C    -2.09222   0.02073   0.10760
H    -2.81145  -0.48066  -0.52003
C    -1.67482   1.37429  -0.02827
H    -1.98722   2.04884  -0.80854
C    -0.83369   1.67888   1.04266
H    -0.41511   2.64813   1.26525
C    -0.73689   0.51674   1.87389
H    -0.25424   0.47222   2.83755
C    -1.56536  -0.47671   1.32422
H    -1.78641  -1.43516   1.76533
C     0.49216  -1.82446  -0.07775
C     2.34786   2.42490  -0.09658
C     1.53173   3.02380  -1.04911
H     0.74652   2.44422  -1.51209
C     1.73776   4.34406  -1.40806
H     1.10230   4.80577  -2.14899
C     2.75910   5.07145  -0.81942
H     2.91652   6.10398  -1.09366
C     3.58534   4.47172   0.11756
H     4.38899   5.03458   0.56941
C     3.38750   3.15045   0.47595
H     4.03761   2.68400   1.20322
C     2.73724   0.46995   1.97564
C     2.40793   1.41896   2.94137
H     1.82933   2.28812   2.65920
C     2.82762   1.26010   4.24817
H     2.57588   2.00532   4.98861
C     3.56473   0.14284   4.60845
H     3.88816   0.01684   5.63084
C     3.87589  -0.81475   3.65787
H     4.43922  -1.69176   3.93935
C     3.46109  -0.65743   2.34713
H     3.69158  -1.41729   1.61658
C     3.39930  -0.03472  -0.79416
H     4.32587   0.51861  -0.63444
H     3.05492   0.08873  -1.82121
H     3.55046  -1.09429  -0.60926
O     0.25365   0.05095  -1.62959
