46

Co    0.00000   0.00000   0.00000
P     1.33291  -0.87558   1.53925
F     0.27610   1.58762   2.30724
F     0.01183   2.72436   0.49783
F    -2.26998   1.00424   2.46940
F    -2.14620   3.03337   1.79685
F    -2.67340   1.49330   0.40207
C     0.34337  -1.26122  -1.66866
H     0.45024  -2.33291  -1.71798
C     1.40372  -0.32872  -1.51474
H     2.45182  -0.57446  -1.43436
C     0.86373   0.97058  -1.62608
H     1.42172   1.89214  -1.66194
C    -0.53165   0.84310  -1.85409
H    -1.21259   1.64948  -2.07319
C    -0.83946  -0.53512  -1.90250
H    -1.81174  -0.95425  -2.10074
C     2.92977  -0.09282   1.91667
C     3.81160  -0.71814   2.79395
H     3.55147  -1.67315   3.22847
C     5.02061  -0.12187   3.09838
H     5.70412  -0.60939   3.77785
C     5.35530   1.10006   2.53494
H     6.29994   1.56362   2.77706
C     4.47855   1.72600   1.66539
H     4.73596   2.68008   1.23043
C     3.26793   1.13057   1.35491
H     2.57529   1.61961   0.68551
C     1.77325  -2.56042   1.01789
C     0.77955  -3.53437   1.07655
H    -0.20174  -3.26578   1.43958
C     1.04619  -4.82129   0.64834
H     0.27493  -5.57553   0.69699
C     2.30014  -5.14222   0.15115
H     2.50811  -6.14765  -0.18340
C     3.28417  -4.17053   0.07376
H     4.25846  -4.41741  -0.32201
C     3.02258  -2.87959   0.49892
H     3.79179  -2.12218   0.43504
C     0.61160  -1.17181   3.19414
H     1.10018  -2.02851   3.65701
H    -0.45364  -1.36174   3.08029
H     0.74600  -0.28268   3.80549
C    -0.39758   1.55658   1.09898
C    -1.88270   1.76370   1.44729
O    -1.18782  -0.80194   0.81760
