64

Rh    0.00000   0.00000   0.00000
P     0.16359   2.19155   0.52853
C    -2.65817  -4.24278   1.85870
H    -2.80681  -5.25628   2.20084
C    -3.17540  -0.98535  -2.74350
H    -3.94598  -0.23404  -2.64239
C    -3.66069  -3.30155   2.02152
H    -4.59245  -3.57997   2.49157
C     0.01905  -2.17310   0.20520
H     0.92235  -2.48807   0.72846
C     1.35242   3.02229  -0.57096
C    -2.22953   3.26695   1.43890
H    -2.01674   2.69481   2.33296
C    -1.94617   0.07320  -0.84055
H    -2.26825   1.07178  -1.14336
C    -2.03888  -0.24734   0.52548
H    -2.42929   0.52246   1.19271
C     0.69564   3.85377   2.73192
H     0.38033   4.67648   2.10355
C    -2.75173   4.74263  -0.84255
H    -2.95445   5.31888  -1.73370
C    -3.46666  -1.99953   1.59413
H    -4.24283  -1.25988   1.73182
C     0.68499   2.55428   2.23023
C    -2.27474  -1.63444   0.98315
C    -1.26200  -2.58402   0.82359
C    -1.30599   3.27280   0.39591
C     0.10772  -1.85844  -1.14031
H     1.07781  -1.93560  -1.63218
C    -3.39801   3.99839   1.34318
H    -4.10629   3.99089   2.15889
C    -1.58190   4.00882  -0.75082
H    -0.87431   4.01462  -1.56825
C    -1.45773  -3.88301   1.27071
H    -0.66748  -4.61124   1.15633
C     3.15070   4.51443  -1.10541
H     3.88362   5.24326  -0.79091
C     3.08595   4.12706  -2.43247
H     3.76547   4.55651  -3.15388
C    -1.17651  -2.88737  -3.01984
H    -0.38897  -3.61846  -3.13453
C     1.45824   3.02282   4.85043
H     1.76492   3.20869   5.86927
C     2.28751   3.96566  -0.17144
H     2.35989   4.25659   0.86615
C     1.03404   1.49200   3.05563
H     1.00075   0.48246   2.65762
C    -1.07335  -1.91884  -2.03150
C     1.42354   1.72734   4.36216
H     1.69780   0.90067   5.00065
C    -2.08216  -0.96268  -1.88814
C    -2.28189  -2.91606  -3.85264
H    -2.35965  -3.67533  -4.61672
C    -3.27869  -1.96457  -3.71611
H    -4.13459  -1.97997  -4.37474
C     2.16447   3.17105  -2.83215
H     2.12772   2.85133  -3.86339
C     1.30580   2.61673  -1.90395
H     0.60266   1.83764  -2.19323
C     1.08815   4.08333   4.03739
H     1.10238   5.09208   4.42451
C    -3.66139   4.73842   0.20138
H    -4.57488   5.30951   0.12610
O     1.64405   0.07091   0.12068
