45

Pd    0.00000   0.00000   0.00000
N    -1.46213   0.29600   1.36331
C    -1.34427  -0.20772   2.73321
C    -2.17813   0.83473   3.52633
O    -2.64940   1.75646   2.54322
C    -2.14682   1.37750   1.36741
C     0.14316  -0.18692   3.10778
C    -1.92867  -1.61325   2.85333
C    -2.28013   2.29277   0.20093
C    -0.88997   2.85620   0.03092
C    -0.40520   4.14822  -0.02074
C     0.99061   4.04533  -0.16030
C     1.28631   2.69642  -0.15626
N     0.14154   1.98520  -0.04598
C     2.58192   1.93456  -0.29753
C     2.31658   0.99467  -1.42114
N     1.48538   0.02264  -1.36978
C     1.29440  -0.52296  -2.71516
C     2.26621   0.35225  -3.55219
O     2.86522   1.24319  -2.61109
C    -0.17582  -0.30893  -3.09699
C     1.67302  -2.00128  -2.76674
H    -1.58392   1.38762   4.25907
H    -3.04207   0.38799   4.02384
H    -3.00512   3.07673   0.40966
H    -2.57712   1.72469  -0.68942
H    -0.98217   5.05166   0.02071
H     1.69021   4.85487  -0.23791
H     2.79954   1.37146   0.61859
H     3.40960   2.59782  -0.54011
H     1.75519   0.94857  -4.31305
H     3.05720  -0.23545  -4.02386
H     0.69541  -0.85552   2.43019
H     0.54029   0.82831   3.01566
H     0.28125  -0.53353   4.12940
H    -1.39905  -2.28846   2.18438
H    -1.83076  -1.96929   3.87566
H    -2.98052  -1.61106   2.57471
H    -0.81602  -0.85736  -2.38943
H    -0.42392   0.75578  -3.05721
H    -0.36464  -0.68283  -4.10070
H     1.05490  -2.56221  -2.06876
H     1.52254  -2.38772  -3.77147
H     2.71533  -2.13527  -2.48450
O    -0.11751  -1.64533   0.03976
