70

Au    0.00000   0.00000   0.00000
Si   -2.14956  -0.29785  -2.24918
P     0.59526  -2.05823  -0.82511
C    -0.63118  -2.85334  -1.91202
C    -1.71600  -2.15338  -2.45571
C    -2.58982  -2.87209  -3.27239
H    -3.42264  -2.36080  -3.72629
C    -2.42577  -4.21829  -3.53624
H    -3.12855  -4.73212  -4.17524
C    -1.36329  -4.90174  -2.97300
H    -1.22449  -5.95678  -3.15892
C    -0.47641  -4.21679  -2.16714
H     0.34583  -4.75578  -1.72174
C     0.82335  -3.28531   0.55268
H     1.25318  -4.22007   0.17650
C     1.77855  -2.67554   1.57460
H     1.43254  -1.68518   1.87390
H     2.78056  -2.57033   1.16391
H     1.83836  -3.30329   2.46223
C    -0.54642  -3.56167   1.16695
H    -0.44549  -4.14736   2.07907
H    -1.18228  -4.10919   0.47355
H    -1.04459  -2.62351   1.41195
C     2.20377  -2.06780  -1.75337
H     2.92972  -1.72242  -1.00388
C     2.66038  -3.40504  -2.32606
H     1.98103  -3.74362  -3.10597
H     2.73978  -4.17434  -1.56004
H     3.64598  -3.27846  -2.77148
C     2.10364  -1.00351  -2.84205
H     3.03703  -0.94693  -3.39881
H     1.91877  -0.02722  -2.39638
H     1.29944  -1.23999  -3.53861
P    -1.64827   1.37728   0.89459
C    -3.25192   0.67325   0.39280
C    -3.37941  -0.07178  -0.78825
C    -4.60835  -0.69282  -1.02047
H    -4.73557  -1.28394  -1.91335
C    -5.67651  -0.57762  -0.15204
H    -6.60632  -1.08151  -0.37060
C    -5.54795   0.19047   0.99086
H    -6.37710   0.30750   1.67325
C    -4.33914   0.80180   1.25700
H    -4.23987   1.38814   2.15783
C    -1.60942   1.25064   2.74964
H    -2.45007   1.78812   3.20128
C    -1.68240  -0.22171   3.14131
H    -1.69601  -0.32793   4.22485
H    -0.80808  -0.74721   2.75823
H    -2.57687  -0.69476   2.73632
C    -0.29437   1.87078   3.22165
H    -0.07250   1.55767   4.24065
H    -0.33681   2.95723   3.20420
H     0.52643   1.55298   2.57661
C    -1.77392   3.20843   0.60356
H    -0.88550   3.61612   1.10258
C    -1.63208   3.46576  -0.89132
H    -2.42491   2.96657  -1.44791
H    -0.66479   3.10115  -1.22982
H    -1.68443   4.53374  -1.09553
C    -3.03506   3.85590   1.16594
H    -3.00223   4.92674   0.97124
H    -3.12212   3.71678   2.24168
H    -3.92302   3.45143   0.68266
F    -3.28633  -0.14189  -3.44239
C    -0.89609   0.90967  -2.99068
H    -0.45068   0.44999  -3.86918
H    -0.09163   1.21027  -2.33193
H    -1.41174   1.80430  -3.32567
O     1.07019   1.18642  -0.41183
