69

Ni    0.00000   0.00000   0.00000
N    -1.33357   0.35911  -1.37366
H    -1.62347   1.33583  -1.27334
H    -0.90880   0.26117  -2.29823
N    -1.80817  -1.07862   0.95221
C    -2.50771  -0.51087  -1.27128
H    -2.23111  -1.51399  -1.60721
H    -3.33370  -0.14206  -1.89251
C    -2.93808  -0.57658   0.19435
H    -3.22224   0.42576   0.53405
H    -3.80817  -1.23228   0.31165
C    -1.97586  -1.41256   2.17212
C    -3.21851  -1.19272   2.94893
C    -3.95598  -2.28092   3.40198
H    -3.62283  -3.28355   3.17278
C    -5.11353  -2.07716   4.13083
H    -5.68811  -2.92522   4.47355
C    -5.52977  -0.78986   4.42790
H    -6.43094  -0.63338   5.00227
C    -4.78628   0.29551   3.99469
H    -5.10115   1.29991   4.23566
C    -3.63628   0.09975   3.25186
H    -3.04621   0.94543   2.92858
C    -0.62638  -1.76326   4.23252
H    -1.24366  -1.03448   4.73780
C     0.42121  -2.37303   4.89810
H     0.61642  -2.12548   5.93108
C     1.21624  -3.30226   4.24534
H     2.02972  -3.78020   4.77100
C     0.96101  -3.62351   2.92141
H     1.57182  -4.35456   2.41245
C    -0.07880  -3.01040   2.24637
H    -0.28764  -3.26004   1.21753
C    -0.87583  -2.06798   2.89587
Br   -0.67500   1.91679   1.23265
N     1.33348  -0.35918   1.37364
H     1.62334  -1.33590   1.27322
H     0.90869  -0.26129   2.29821
N     1.80814   1.07866  -0.95222
C     2.50761   0.51081   1.27128
H     2.23105   1.51391   1.60728
H     3.33358   0.14191   1.89248
C     2.93802   0.57662  -0.19434
H     3.22223  -0.42569  -0.53406
H     3.80808   1.23236  -0.31160
C     1.97581   1.41252  -2.17215
C     3.21846   1.19266  -2.94895
C     3.95582   2.28086  -3.40217
H     3.62256   3.28350  -3.17315
C     5.11345   2.07710  -4.13090
H     5.68797   2.92517  -4.47371
C     5.52988   0.78979  -4.42768
H     6.43111   0.63332  -5.00194
C     4.78647  -0.29558  -3.99434
H     5.10147  -1.29999  -4.23512
C     3.63639  -0.09981  -3.25164
H     3.04638  -0.94550  -2.92827
C     0.62612   1.76264  -4.23252
H     1.24336   1.03374  -4.73766
C    -0.42151   2.37227  -4.89817
H    -0.61683   2.12443  -5.93107
C    -1.21644   3.30172  -4.24560
H    -2.02997   3.77953  -4.77132
C    -0.96110   3.62331  -2.92178
H    -1.57188   4.35450  -2.41296
C     0.07874   3.01032  -2.24665
H     0.28763   3.26019  -1.21787
C     0.87570   2.06773  -2.89597
O     0.46847  -1.33096  -0.85533
