55

Re    0.00000   0.00000   0.00000
Br   -1.93349   0.77717   1.35746
Br    1.64767   1.45828   1.17717
N    -1.11078  -1.17457  -1.18450
N     1.36954  -1.12012  -0.89749
H     2.38265  -1.03316  -0.82564
P     0.25995  -1.73592   1.77876
C    -0.48145  -2.17764  -1.80767
C    -1.03296  -3.21021  -2.59215
H    -2.10112  -3.29235  -2.71621
C    -0.21197  -4.14300  -3.17016
H    -0.64443  -4.93578  -3.76133
C     1.18021  -4.09293  -3.00939
H     1.79611  -4.84109  -3.48430
C     1.75861  -3.10744  -2.25394
H     2.82944  -3.05517  -2.11815
C     0.94443  -2.14131  -1.63895
C    -2.47880  -0.87780  -1.47187
H    -2.90303  -1.51452  -2.24556
H    -2.54271   0.16361  -1.80696
H    -3.07922  -0.95860  -0.56081
C    -0.36619  -1.42763   3.46059
C     0.01167  -0.24234   4.08604
H     0.61869   0.48021   3.55991
C    -0.39935   0.01756   5.37955
H    -0.11318   0.94349   5.85399
C    -1.17892  -0.90405   6.05858
H    -1.50526  -0.69860   7.06697
C    -1.54153  -2.09074   5.44374
H    -2.14559  -2.81342   5.97249
C    -1.13800  -2.35825   4.14834
H    -1.43156  -3.28569   3.67679
C     1.89607  -2.42958   2.18653
C     3.08584  -1.79642   1.85371
H     3.07549  -0.85424   1.32789
C     4.29637  -2.35461   2.22984
H     5.21694  -1.85505   1.96841
C     4.32511  -3.53910   2.94402
H     5.26958  -3.97330   3.23565
C     3.13788  -4.16254   3.29806
H     3.15605  -5.07927   3.86870
C     1.92790  -3.61028   2.92767
H     1.00238  -4.09181   3.21202
C    -0.68615  -3.16274   1.17323
C    -0.07015  -4.24746   0.55807
H     1.00856  -4.30865   0.51933
C    -0.83974  -5.25070  -0.00366
H    -0.35562  -6.09159  -0.47735
C    -2.22167  -5.17171   0.03059
H    -2.81783  -5.95511  -0.41269
C    -2.84026  -4.08350   0.62673
H    -3.91789  -4.01586   0.64795
C    -2.07841  -3.07855   1.19129
H    -2.55499  -2.22189   1.65145
O    -0.15208   1.18963  -1.13320
