54

Os    0.00000   0.00000   0.00000
P    -0.94643   1.57471  -1.39351
C    -0.69784  -1.38458  -1.15678
H    -1.43025  -1.22516  -1.96198
C    -0.42659  -2.77926  -0.95356
C     0.82100  -3.22982  -0.48889
H     1.61060  -2.50705  -0.33939
C     1.06025  -4.57200  -0.28451
H     2.02920  -4.89887   0.06513
C     0.06441  -5.50611  -0.52895
H     0.25098  -6.55635  -0.35981
C    -1.16760  -5.08587  -1.00888
H    -1.94153  -5.81212  -1.21323
C    -1.40679  -3.74706  -1.23457
H    -2.36842  -3.42281  -1.60719
C    -1.02126   1.13750  -3.18477
C    -2.06318   1.35705  -3.97776
H    -2.02295   1.08797  -5.02238
H    -2.98926   1.79721  -3.65433
C     0.23336   0.51852  -3.71849
H     0.10189   0.20593  -4.75174
H     0.51337  -0.34235  -3.10982
H     1.06283   1.22169  -3.66943
C    -2.70758   2.07244  -1.01614
H    -3.05187   2.72533  -1.82348
C    -2.83595   2.82526   0.30268
H    -3.88873   2.98158   0.53623
H    -2.35740   3.79979   0.25611
H    -2.39146   2.25385   1.11171
C    -3.54996   0.80039  -0.97816
H    -3.15303   0.11842  -0.22591
H    -3.52962   0.28828  -1.93650
H    -4.58405   1.03474  -0.73078
C     0.03403   3.16208  -1.56728
H     0.89334   2.84423  -2.17112
C     0.58657   3.65783  -0.23587
H     1.25530   4.50031  -0.40618
H     1.15970   2.86647   0.24308
H    -0.20171   3.98174   0.43854
C    -0.71863   4.25392  -2.31967
H    -1.52402   4.66832  -1.71819
H    -1.13560   3.86779  -3.24758
H    -0.03395   5.06416  -2.56506
C     1.11118   0.50527   2.18609
H     2.03563   1.03546   2.35507
C    -0.16462   1.05402   2.19376
H    -0.41028   2.08154   2.41414
C    -1.10731  -0.00551   1.97513
H    -2.17012   0.06194   2.17100
C    -0.36657  -1.22790   1.94651
H    -0.78989  -2.22181   1.94706
C     0.99403  -0.90440   2.00754
H     1.81108  -1.60573   2.06611
O     1.46300   0.30255  -0.70043
