52

Au    0.00000   0.00000   0.00000
S     2.19961   0.44939  -0.89487
S    -0.97601   1.24687  -3.14471
P    -2.08828   1.75197  -1.47620
P     2.68860   0.33359   1.06153
C    -1.24981   0.22565  -1.64648
C     1.41576  -0.80546   1.17237
C    -0.37436   3.95048  -1.35923
C     0.00869   5.19343  -0.88804
C    -0.77718   5.85625   0.04177
C    -1.94405   5.27467   0.51535
C    -2.33864   4.03408   0.05362
C    -1.55416   3.38240  -0.89349
C    -4.49692   2.92414  -2.25531
C    -5.84631   2.86524  -2.54871
C    -6.53944   1.67254  -2.40343
C    -5.89025   0.52833  -1.96656
C    -4.54021   0.57193  -1.67294
C    -3.85467   1.77125  -1.81974
C     5.47708   0.55777   1.21561
C     6.74765   0.01655   1.27770
C     6.91603  -1.35807   1.35094
C     5.81636  -2.20203   1.35604
C     4.54183  -1.67115   1.28783
C     4.37876  -0.29339   1.22591
C     3.22747   2.05980   3.14409
C     3.08830   3.22836   3.86707
C     2.37011   4.29003   3.33814
C     1.78822   4.18510   2.08514
C     1.92462   3.02053   1.35359
C     2.66036   1.96563   1.87628
H     0.23139   3.42835  -2.08965
H     0.92190   5.64288  -1.24982
H    -0.47819   6.83074   0.39993
H    -2.54741   5.78785   1.24859
H    -3.23455   3.55745   0.42590
H    -3.94275   3.84682  -2.36540
H    -6.35944   3.75086  -2.89311
H    -7.59405   1.63673  -2.63263
H    -6.43655  -0.39552  -1.85210
H    -4.00666  -0.30213  -1.32441
H     5.33078   1.62827   1.15677
H     7.60984   0.66713   1.26683
H     7.91183  -1.77319   1.40104
H     5.95359  -3.27171   1.41096
H     3.66181  -2.30150   1.28580
H     3.77454   1.21671   3.54722
H     3.53282   3.30930   4.84799
H     2.25766   5.20001   3.90822
H     1.22003   5.00767   1.67727
H     1.47757   2.93309   0.37067
O    -1.30138   0.55117   0.85155
