51

Zn    0.00000   0.00000   0.00000
O    -5.08730   3.78422  -3.52516
N    -7.23563   4.88184  -0.94738
N    -5.04074   3.52898  -1.24265
H    -5.60149   3.79908  -0.43638
N    -1.61794   1.30573  -0.43994
C    -8.35318   5.54499  -0.72265
H    -8.63136   5.65134   0.31762
C    -9.13660   6.08074  -1.73703
H   -10.04273   6.61591  -1.50108
C    -8.72492   5.91067  -3.04949
H    -9.30706   6.31128  -3.86603
C    -7.55071   5.21713  -3.29507
H    -7.17505   5.04979  -4.29196
C    -6.83925   4.72042  -2.20906
C    -5.56548   3.96490  -2.42794
C    -3.89851   2.79487  -1.01498
C    -3.55617   2.46697   0.30174
H    -4.17880   2.78443   1.12395
C    -2.41917   1.72601   0.53657
H    -2.13124   1.43942   1.53794
C    -3.05371   2.34812  -2.03446
H    -3.27676   2.56901  -3.06442
C    -1.93691   1.61282  -1.69500
H    -1.26582   1.23711  -2.45439
Cl   -0.55562  -0.80931   1.98281
O     5.08862   3.78251   3.52510
N     7.23626   4.88127   0.94724
N     5.04225   3.52696   1.24263
H     5.60287   3.79724   0.43632
N     1.61939   1.30378   0.44004
C     8.35302   5.54573   0.72246
H     8.63154   5.65155  -0.31780
C     9.13589   6.08237   1.73679
H    10.04158   6.61827   1.50080
C     8.72436   5.91206   3.04923
H     9.30584   6.31374   3.86572
C     7.55086   5.21735   3.29486
H     7.17503   5.05024   4.29176
C     6.84001   4.71963   2.20892
C     5.56648   3.96371   2.42783
C     3.90026   2.79245   1.01502
C     3.55788   2.46452  -0.30168
H     4.18050   2.78195  -1.12391
C     2.42071   1.72382  -0.53648
H     2.13270   1.43725  -1.53784
C     3.05545   2.34579   2.03452
H     3.27849   2.56677   3.06447
C     1.93854   1.61065   1.69510
H     1.26721   1.23531   2.45449
O     0.41353  -0.60395  -1.47876
