62

Co    0.00000   0.00000   0.00000
Cl   -1.03484  -0.96775  -1.80576
N     0.10895   2.73409   0.54566
N    -1.40679   2.59867  -0.97276
N     1.42034  -1.35392   1.98647
N     0.38205  -2.93368   0.96399
N     1.64726   0.05756  -1.30718
H     1.12703  -0.41872  -2.05587
C     0.98482   0.79105   1.35201
C     1.67587  -0.00382   2.24787
C     2.43143   0.57749   3.25500
H     2.97901  -0.02111   3.96770
C     2.45561   1.96432   3.34202
H     3.04085   2.42722   4.12250
C     1.72819   2.77511   2.47899
H     1.74099   3.84792   2.60177
C     0.98089   2.16753   1.48118
C    -0.50528   1.86494  -0.30664
C    -0.40022   3.99153   0.40071
H    -0.06870   4.82785   0.98078
C    -1.35275   3.90410  -0.55926
H    -1.99672   4.65671  -0.96613
C     0.61164  -1.61527   0.92022
C     1.69708  -2.50005   2.67278
H     2.30723  -2.52341   3.55204
C     1.04533  -3.49546   2.02357
H     0.99131  -4.54349   2.23715
C    -0.42769  -3.67991   0.03547
H    -1.13886  -2.98988  -0.42245
H    -0.97691  -4.44634   0.58875
C     0.42370  -4.32194  -1.06037
H     1.16934  -4.98643  -0.61285
H     0.94723  -3.53126  -1.60148
C    -0.44641  -5.09902  -2.04305
H    -1.16271  -4.40933  -2.49151
H    -1.00775  -5.86672  -1.50508
C     0.38804  -5.75217  -3.13751
H    -0.24952  -6.30212  -3.82508
H     1.11006  -6.44583  -2.70993
H     0.92977  -4.99716  -3.70261
C    -2.31768   2.10872  -1.97694
H    -3.19548   2.75966  -1.98497
H    -2.62070   1.09849  -1.69369
C    -1.67802   2.05563  -3.36583
H    -2.42880   1.67911  -4.06166
H    -0.86587   1.32771  -3.34386
C    -1.16589   3.40932  -3.85041
H    -1.99263   4.12409  -3.87449
H    -0.41436   3.79543  -3.15587
C    -0.55111   3.30511  -5.24072
H    -1.28989   2.95337  -5.95682
H     0.27989   2.60314  -5.23772
H    -0.18335   4.27343  -5.57281
C     2.82294  -0.75024  -0.99269
H     3.34815  -0.31952  -0.13931
H     3.51403  -0.78473  -1.84359
H     2.52679  -1.76698  -0.74648
C     2.07920   1.35558  -1.82051
H     1.22481   1.91481  -2.19259
H     2.79973   1.23363  -2.63834
H     2.55653   1.92637  -1.02299
O    -1.30699  -0.05680   1.00552
