45

Cd    0.00000   0.00000   0.00000
Cl    0.76003   1.86183   1.31239
N    -1.42360  -1.68264  -0.99555
N    -0.58050  -1.17809   1.88220
H     0.08548  -0.68590   2.47975
N    -2.29829   0.65607   0.37098
N    -0.48694   0.88399  -2.06140
H     0.48067   0.84329  -2.38536
C    -0.89570  -2.99659  -0.59682
H     0.17512  -2.97007  -0.81187
H    -1.35750  -3.78114  -1.22020
C    -1.05456  -3.41442   0.86686
H    -0.68966  -4.44244   0.92906
H    -2.10418  -3.44674   1.16487
C    -0.24249  -2.59797   1.87568
H    -0.38492  -3.04599   2.87427
H     0.81604  -2.67482   1.60885
C    -1.92694  -0.84931   2.33305
H    -2.00527  -0.85710   3.43141
H    -2.62452  -1.59156   1.94734
C    -2.32054   0.53916   1.83059
H    -3.31861   0.79297   2.22572
H    -1.59489   1.25482   2.22404
C    -3.32959  -0.15670  -0.26445
H    -3.73355   0.39718  -1.11064
H    -4.17028  -0.31711   0.42736
C    -2.85941  -1.55055  -0.77425
H    -3.16764  -2.30101  -0.04775
H    -3.41102  -1.77429  -1.69986
C    -0.92482   2.27638  -2.07141
H    -0.96080   2.67515  -3.09995
H    -0.18584   2.84946  -1.50300
C    -2.29814   2.48967  -1.42938
H    -3.07503   2.01790  -2.03395
H    -2.49701   3.56351  -1.46371
C    -2.40531   2.08606   0.04295
H    -1.58876   2.58008   0.57467
H    -3.36135   2.47953   0.42846
C    -1.05644  -1.47059  -2.39724
H    -1.61965  -2.15453  -3.05437
H     0.00920  -1.69267  -2.49035
C    -1.27754  -0.03459  -2.87106
H    -1.01028   0.02464  -3.93767
H    -2.33150   0.22473  -2.78021
O     1.33698  -0.76677  -0.58912
