61

Pd    0.00000   0.00000   0.00000
P    -1.13600   1.62453   1.02003
C    -0.97785  -0.00043  -1.80475
H    -1.33489   1.00160  -2.07339
H    -1.83609  -0.68114  -1.71703
H    -0.32186  -0.37859  -2.59411
N     0.96244  -0.12126   2.05823
C    -1.84441   0.92604   2.54941
C    -3.17034   1.16696   2.89401
H    -3.77672   1.79865   2.26137
C    -3.72866   0.61623   4.03451
H    -4.76207   0.81545   4.27522
C    -2.95850  -0.17976   4.86584
H    -3.38517  -0.61017   5.75898
C    -1.63428  -0.41185   4.55087
H    -1.02833  -1.02528   5.20269
C    -1.05941   0.11460   3.39180
C     0.34945  -0.17286   3.16977
H     0.89747  -0.46095   4.07584
C     2.37662  -0.35209   2.03253
H     2.57868  -1.23394   1.41016
H     2.79504  -0.48838   3.03900
C     3.04094   0.87707   1.37158
N     2.75132   0.93394   0.05789
H     2.22125   0.13645  -0.34164
O     3.69599   1.66822   2.01404
C     3.10269   1.92221  -0.86864
C     2.38104   1.95209  -2.05958
H     1.58531   1.22720  -2.21359
C     2.66467   2.89822  -3.02372
H     2.10125   2.91768  -3.94734
C     3.67690   3.82844  -2.80965
O     3.98961   4.78264  -3.73067
H     3.43555   4.67401  -4.51277
C     4.39510   3.79911  -1.61846
H     5.17645   4.52683  -1.46815
C     4.11296   2.85351  -0.65249
H     4.66393   2.83758   0.27282
C     0.01354   2.90704   1.59485
C     0.75374   3.53316   0.59395
H     0.57290   3.25983  -0.44034
C     1.70502   4.47938   0.91996
H     2.27719   4.95892   0.14062
C     1.93682   4.79016   2.25056
H     2.69528   5.51254   2.51037
C     1.20450   4.16941   3.24802
H     1.38918   4.41158   4.28421
C     0.23872   3.23155   2.92637
H    -0.33393   2.75170   3.70867
C    -2.52347   2.55231   0.30007
C    -3.51076   1.80483  -0.34110
H    -3.41804   0.72539  -0.36193
C    -4.58898   2.43587  -0.93029
H    -5.35372   1.85410  -1.42324
C    -4.68354   3.81906  -0.89255
H    -5.52255   4.31491  -1.35755
C    -3.70200   4.56537  -0.26197
H    -3.77726   5.64245  -0.23369
C    -2.62158   3.93790   0.33486
H    -1.85661   4.52131   0.82724
O     0.86214  -1.30830  -0.51727
