57

Au    0.00000   0.00000   0.00000
P     0.79318  -2.07862  -0.30597
C     2.08310  -2.44856   0.91368
C     3.31016  -3.00040   0.56538
H     3.48566  -3.32391  -0.45141
C     4.30533  -3.13200   1.51893
H     5.25131  -3.57528   1.24578
C     4.09514  -2.67913   2.81191
H     4.88137  -2.76512   3.54671
C     2.88245  -2.11294   3.16355
H     2.70549  -1.75021   4.16419
C     1.86133  -2.00665   2.22686
C     0.56445  -1.43643   2.58367
H    -0.31546  -1.93248   2.13224
N     0.47652  -0.45456   3.36676
C    -0.77602   0.13270   3.68947
H    -1.64128  -0.51953   3.50271
H    -0.89145   1.02900   3.05984
C    -0.78295   0.60907   5.14471
O    -1.78230   0.58625   5.82690
N     0.43917   1.04323   5.52484
H     1.17797   0.93411   4.83764
C     0.84670   1.57339   6.74623
C    -0.01766   1.86283   7.79295
H    -1.06804   1.65816   7.67061
C     0.46864   2.40574   8.97048
H    -0.21471   2.62721   9.77566
C     1.81801   2.66765   9.11545
H     2.19908   3.09401  10.03084
C     2.69174   2.38129   8.07806
H     3.74997   2.58345   8.18386
C     2.21822   1.83511   6.89896
O     3.04707   1.52640   5.85014
H     3.94518   1.80135   6.06607
C     1.59791  -2.40624  -1.89702
C     1.49419  -3.61665  -2.57403
H     0.91259  -4.42508  -2.15276
C     2.13923  -3.77677  -3.78771
H     2.05931  -4.71532  -4.31605
C     2.88359  -2.73925  -4.32550
H     3.38310  -2.87099  -5.27355
C     2.98319  -1.53012  -3.65408
H     3.55818  -0.72027  -4.07736
C     2.33637  -1.35999  -2.44518
H     2.39141  -0.41838  -1.91213
C    -0.41078  -3.42375  -0.14988
C    -0.16408  -4.57955   0.58329
H     0.78142  -4.70418   1.09411
C    -1.13723  -5.56057   0.65567
H    -0.95020  -6.45870   1.22553
C    -2.34785  -5.39234   0.00270
H    -3.10322  -6.16117   0.06479
C    -2.59564  -4.23798  -0.72449
H    -3.54182  -4.10617  -1.22738
C    -1.63124  -3.25096  -0.79785
H    -1.81088  -2.33673  -1.35019
O    -0.58180   1.47956   0.44148
