45

Mo    0.00000   0.00000   0.00000
Cl    1.65163   0.99139   1.36089
S    -2.01014   1.36063   1.68231
S     0.79104   2.91810  -0.92006
O    -0.94200  -0.60871   1.22377
O     0.92473  -1.17246  -0.66023
O    -1.00284   1.81913   0.64192
O     0.75182   1.45166  -1.25453
C    -2.79123   2.96551   2.04893
C    -2.12303   4.15569   1.82023
H    -1.11643   4.12461   1.42732
C    -2.74888   5.35948   2.08645
H    -2.22539   6.28771   1.90787
C    -4.04759   5.39168   2.58448
C    -4.70853   4.18853   2.80543
H    -5.71892   4.19792   3.18680
C    -4.08796   2.98176   2.53478
H    -4.60449   2.04770   2.69732
C     2.10948   3.50529  -2.00425
C     2.58459   4.79954  -1.87443
H     2.15493   5.46003  -1.13648
C     3.61344   5.23028  -2.69288
H     3.98656   6.23907  -2.59598
C     4.18184   4.37547  -3.63186
C     3.69673   3.07529  -3.73639
H     4.13489   2.39920  -4.45534
C     2.66689   2.63700  -2.92517
H     2.29472   1.62415  -2.98662
C    -4.70980   6.69875   2.89233
H    -5.79126   6.59307   2.90905
H    -4.43862   7.45338   2.15768
H    -4.38876   7.05494   3.87145
C     5.28818   4.84261  -4.52445
H     6.02477   4.05577  -4.66848
H     5.78098   5.71838  -4.11075
H     4.88784   5.10741  -5.50330
C    -1.07647   1.34602   3.24443
H    -0.54110   0.40207   3.29404
H    -1.78422   1.43117   4.06165
H    -0.38113   2.17913   3.23320
C    -0.58470   3.57237  -1.93052
H    -0.48134   3.18816  -2.93968
H    -0.55707   4.65586  -1.91635
H    -1.50303   3.20078  -1.48288
O    -1.22299   0.06834  -1.10550
