40

Mo    0.00000   0.00000   0.00000
Cl   -0.15099   0.85684  -2.11850
S    -1.25329  -2.18506  -2.09905
S    -3.13098  -1.35344  -0.09941
O     1.61640  -0.21726   0.12836
O    -0.46115   1.29288   0.88987
O    -0.09153  -1.86338  -1.23516
O    -2.15444  -0.33602  -0.59800
C    -0.82344  -3.80676  -2.76644
C     0.26658  -4.48568  -2.25579
H     0.83976  -4.03434  -1.45967
C     0.60821  -5.71791  -2.78391
H     1.46051  -6.24890  -2.38749
C    -0.12949  -6.27532  -3.82217
C    -1.22099  -5.57087  -4.32622
H    -1.79539  -5.99269  -5.13756
C    -1.56854  -4.33795  -3.80748
H    -2.40723  -3.78587  -4.20534
C     0.22921  -7.61068  -4.39296
H     1.20204  -7.93892  -4.03823
H     0.24498  -7.57026  -5.48014
H    -0.51259  -8.35314  -4.09952
C    -2.46972  -2.88472  -0.89272
H    -1.92532  -3.46312  -0.14903
H    -3.24339  -3.45953  -1.38948
C    -4.46387  -1.16285  -1.31034
C    -4.25854  -0.40324  -2.44797
H    -3.30614   0.08537  -2.59809
C    -5.28641  -0.26148  -3.36383
H    -5.12800   0.33462  -4.24983
C    -6.52043  -0.86581  -3.15060
C    -6.70793  -1.62056  -1.99476
H    -7.66518  -2.08645  -1.81412
C    -5.68817  -1.76846  -1.07341
H    -5.83526  -2.34421  -0.17227
C    -7.63067  -0.72070  -4.14265
H    -8.57726  -0.54451  -3.63677
H    -7.73116  -1.63645  -4.72535
H    -7.43743   0.10006  -4.82757
O    -0.53715  -1.14223   1.06268
