36

Cd    0.00000   0.00000   0.00000
Cl    1.04517  -1.55934  -1.41177
N    -1.44516  -1.65820   0.69617
N    -0.04514  -2.25639   2.47383
H     0.20832  -3.04251   3.05713
N     0.26999   0.07041   2.32826
N     0.61537   2.39828   2.18929
H     0.41835   3.25252   2.69318
N     1.67022   1.56571   0.26943
C    -2.20540  -2.01667  -0.33859
H    -2.72832  -1.20361  -0.83122
C    -2.33303  -3.32288  -0.76633
H    -2.95086  -3.56403  -1.61554
C    -1.62363  -4.30962  -0.09047
H    -1.67767  -5.34046  -0.40670
C    -0.84982  -3.95517   0.99303
H    -0.28789  -4.69437   1.54385
C    -0.78012  -2.60402   1.35480
C     0.12502  -1.02551   3.07714
C     0.18307  -0.98433   4.47423
H     0.10756  -1.89340   5.04932
C     0.29683   0.24479   5.09600
H     0.30483   0.31241   6.17311
C     0.39902   1.38370   4.32384
H     0.48370   2.35739   4.77950
C     0.42849   1.25275   2.92801
C     1.17930   2.60239   0.94513
C     1.27556   3.91628   0.46818
H     0.85617   4.73238   1.03685
C     1.88308   4.13570  -0.74865
H     1.95051   5.13526  -1.15118
C     2.40648   3.05309  -1.44731
H     2.89144   3.18667  -2.40035
C     2.27004   1.79318  -0.89928
H     2.65144   0.91088  -1.40143
O    -1.00438   1.17704  -0.57298
