40

Rh    0.00000   0.00000   0.00000
Cl   -1.16720   1.62497  -1.07894
C    -0.22728  -1.14898  -1.63997
S    -0.71522  -2.77638  -1.89694
C    -1.06234  -3.49564  -0.26619
S     0.14094  -0.30027  -3.05184
C    -0.13516  -1.46209  -4.43621
B    -0.40111  -0.66238   3.04566
N    -1.72169  -0.56995   0.92353
N    -1.69461  -0.83998   2.23073
C    -2.93388  -1.12948   2.64875
C    -3.78875  -1.04417   1.56916
C    -2.97293  -0.68056   0.49937
N     0.25297   1.23554   1.58673
N     0.03637   0.79043   2.82818
C     0.26621   1.78193   3.69985
C     0.64346   2.90262   2.99119
C     0.61987   2.50518   1.65524
N     1.01708  -1.37171   1.11111
N     0.68951  -1.53228   2.39577
C     1.51953  -2.42184   2.95630
C     2.41236  -2.85013   1.99552
C     2.05615  -2.15103   0.84392
H    -1.27564  -4.54366  -0.45705
H    -1.93044  -3.01591   0.17246
H    -0.19176  -3.40585   0.37289
H     0.10159  -0.90847  -5.33807
H    -1.17282  -1.77970  -4.44938
H     0.52223  -2.31971  -4.33577
H    -0.55700  -0.92859   4.18405
H    -3.12978  -1.37398   3.67274
H    -4.84538  -1.21222   1.55382
H    -3.23117  -0.48948  -0.52452
H     0.14846   1.62956   4.75371
H     0.89903   3.86698   3.37805
H     0.84624   3.06820   0.76999
H     1.42661  -2.69166   3.98842
H     3.20752  -3.55723   2.10757
H     2.49871  -2.17006  -0.13338
O     1.43678   0.51161  -0.62962
