28

Ru    0.00000   0.00000   0.00000
Cl    0.59553   1.00743  -2.01526
Cl   -1.97169   1.06966  -0.08433
N    -0.99548  -1.52416  -1.19032
N    -0.69357  -0.76849   1.89610
C    -2.96190  -2.72068  -1.79131
H    -3.97612  -2.99309  -1.54730
C    -1.07520  -2.56226   3.41294
H    -1.01773  -3.62047   3.61178
N     1.38279  -0.94007   0.08665
C    -1.16593   0.08445   2.79933
H    -1.17534   1.13073   2.52141
C    -2.24617  -1.89886  -0.93781
H    -2.69548  -1.51344  -0.03111
C    -0.64617  -2.06524   2.19575
H    -0.25384  -2.73216   1.43665
C    -1.05192  -2.77872  -3.21050
H    -0.53760  -3.09568  -4.10323
C    -0.40459  -1.95758  -2.30191
H     0.60781  -1.61867  -2.48325
O     2.24037  -1.71829   0.16305
C    -2.35742  -3.16638  -2.95641
H    -2.89273  -3.79675  -3.64999
C    -1.57081  -1.67786   4.36039
H    -1.91165  -2.03388   5.32064
C    -1.61381  -0.33104   4.04378
H    -1.98568   0.39733   4.74594
O     0.67801   1.25911   0.82307
