39

Rh    0.00000   0.00000   0.00000
Cl   -2.28304  -0.05502   0.20306
O     0.32358  -2.37743   0.44625
N    -0.08577   0.11643  -2.20036
N     0.07341   0.59353   2.06219
C     0.00047   1.91858  -0.23832
C     0.29411   2.42883  -1.48840
C     0.31482   3.80792  -1.63745
C     0.05712   4.61679  -0.53909
C    -0.22383   4.08148   0.71105
C    -0.25857   2.70426   0.87004
C     0.62155   1.38621  -2.52412
C    -0.59989   1.92246   2.11093
C    -1.45455   0.22832  -2.71441
C     0.57067  -0.99991  -2.88335
C     1.44655   0.76732   2.54357
C    -0.60947  -0.35170   2.94717
H    -0.05706  -2.96790  -0.20899
H     1.27224  -2.28409   0.25327
H     0.53715   4.25110  -2.59771
H     0.07832   5.68981  -0.65948
H    -0.41843   4.73473   1.54962
H     1.69826   1.19366  -2.47765
H     0.36885   1.70924  -3.54186
H    -0.32520   2.44968   3.03270
H    -1.68096   1.75184   2.11168
H    -1.43989   0.32878  -3.80670
H    -2.03406  -0.65334  -2.44633
H    -1.94083   1.10043  -2.28143
H     1.58239  -1.12541  -2.49817
H     0.61994  -0.81838  -3.96385
H     0.00213  -1.91548  -2.71402
H    -0.09887  -1.31381   2.90775
H    -0.60850   0.01569   3.97969
H    -1.63660  -0.49119   2.61419
H     1.99110  -0.17296   2.47574
H     1.96157   1.51265   1.93899
H     1.44057   1.09934   3.58874
O     1.63443  -0.15091  -0.16838
