43

Pt    0.00000   0.00000   0.00000
Cl   -0.46187   0.29272   2.31491
Cl   -1.95140   1.04399  -0.64724
O     1.35532  -2.29433   1.02699
N    -0.73713  -1.88969   0.19526
H    -1.66781  -2.23294   0.00202
N    -0.13758  -3.98294   1.05564
N     1.63454  -0.96992   0.59835
N     3.00837   0.87600   0.72809
N     2.98717   2.80960  -0.46310
N     0.96861   1.72861  -0.11178
H     0.51992   2.52407  -0.55339
C     0.11500  -2.70280   0.74372
C    -1.46931  -4.52026   0.86607
H    -2.20654  -3.96763   1.45424
H    -1.47112  -5.55607   1.19392
H    -1.75324  -4.49099  -0.18817
C     0.83397  -4.81343   1.73249
H     1.79718  -4.31213   1.75130
H     0.93508  -5.76129   1.20190
H     0.51583  -5.00891   2.75930
C     2.65881  -0.32188   1.11498
C     3.54679  -0.97776   2.10108
C     4.91942  -1.01579   1.88886
H     5.32456  -0.57666   0.99059
C     5.74380  -1.62095   2.81985
H     6.80997  -1.65629   2.65155
C     5.20453  -2.17715   3.96860
H     5.85049  -2.64669   4.69576
C     3.83819  -2.12317   4.18914
H     3.41898  -2.54223   5.09192
C     3.00590  -1.52835   3.25775
H     1.94319  -1.46051   3.43785
C     2.28264   1.76514   0.02040
C     4.39187   2.97319  -0.17799
H     4.57401   3.97484   0.21593
H     4.98598   2.83142  -1.08412
H     4.67937   2.23229   0.56242
C     2.36457   3.82126  -1.28635
H     1.74137   3.36265  -2.05712
H     3.14711   4.39312  -1.78017
H     1.75471   4.50940  -0.69253
O     0.42051  -0.27797  -1.57112
