49

Pt    0.00000   0.00000   0.00000
Cl   -0.10252  -1.79535   1.52321
Cl   -1.61132   1.15813   1.29050
O     1.07001   2.74694   1.23048
N     1.53839   0.59905   1.18612
H     2.13167  -0.16045   1.50385
N     2.36150   1.84628   2.96438
N     0.63209   3.85185   2.04140
N    -0.85388   4.29025   0.28984
H    -0.57798   3.46748  -0.24052
H    -1.70279   4.75467   0.02218
C     1.66143   1.73169   1.82513
C     2.79696   0.65724   3.66545
H     2.03092  -0.11631   3.61192
H     2.94847   0.91695   4.71211
H     3.73815   0.26732   3.26447
C     2.93282   3.08825   3.43596
H     4.02177   3.05098   3.34166
H     2.66972   3.23595   4.48417
H     2.53883   3.92006   2.86109
C    -0.33464   4.50311   1.50200
C    -0.87566   5.64303   2.30866
H    -0.30224   5.75257   3.22319
H    -1.91564   5.44344   2.56091
H    -0.82565   6.56447   1.73163
Cl    0.10430   1.79750  -1.52188
O    -1.06990  -2.74543  -1.23083
N    -1.53843  -0.59762  -1.18641
H    -2.13160   0.16196  -1.50417
N    -2.36136  -1.84474  -2.96472
N    -0.63177  -3.85026  -2.04177
N     0.85431  -4.28843  -0.29026
H     0.57835  -3.46564   0.24009
H     1.70326  -4.75278  -0.02262
C    -1.66136  -1.73021  -1.82546
C    -2.79682  -0.65565  -3.66570
H    -2.03078   0.11791  -3.61216
H    -2.94837  -0.91530  -4.71237
H    -3.73799  -0.26575  -3.26466
C    -2.93264  -3.08670  -3.43630
H    -4.02158  -3.04947  -3.34190
H    -2.66957  -3.23432  -4.48453
H    -2.53855  -3.91849  -2.86147
C     0.33506  -4.50137  -1.50238
C     0.87613  -5.64132  -2.30897
H     0.30279  -5.75076  -3.22362
H     1.91622  -5.44174  -2.56108
H     0.82598  -6.56285  -1.73196
O     1.12414  -0.80502  -0.90042
