63

Pt    0.00000   0.00000   0.00000
Cl    1.43877  -1.59374   1.00347
O     3.00308   0.99476   0.34673
N     0.94684   1.56698   0.88279
H     0.32913   2.20521   1.37377
N     2.67883   2.39353   2.19252
N     4.25647   0.51935   0.86090
N     4.17930  -1.01040  -0.91186
H     3.25655  -0.69787  -1.20616
H     4.46842  -1.92432  -1.21213
C     2.21708   1.65791   1.17102
C     1.76444   2.89487   3.19606
H     1.31424   3.84699   2.89776
H     2.32343   3.04964   4.11777
H     0.97728   2.16640   3.39071
C     4.03309   2.89277   2.28225
H     4.62153   2.53985   1.44208
H     4.50035   2.53756   3.20223
H     4.01454   3.98561   2.28739
C     4.70946  -0.49131   0.20419
C     5.97115  -1.05381   0.72398
C     6.22665  -1.03441   2.09184
H     5.48981  -0.60122   2.74825
C     7.39759  -1.57466   2.58891
H     7.58733  -1.56275   3.65194
C     8.32581  -2.13622   1.72698
H     9.23949  -2.56070   2.11611
C     8.08081  -2.15058   0.36429
H     8.80625  -2.58016  -0.31064
C     6.90895  -1.61393  -0.13804
H     6.73431  -1.60959  -1.20405
Cl   -1.43954   1.59482  -1.00200
Cl    1.28751  -0.03140  -1.97428
O    -3.00461  -0.99345  -0.34676
N    -0.94842  -1.56593  -0.88279
H    -0.33084  -2.20420  -1.37385
N    -2.68039  -2.39212  -2.19264
N    -4.25795  -0.51793  -0.86095
N    -4.18080   1.01173   0.91187
H    -3.25808   0.69918   1.20620
H    -4.46990   1.92565   1.21215
C    -2.21865  -1.65658  -1.17109
C    -1.76593  -2.89348  -3.19611
H    -1.31574  -3.84558  -2.89776
H    -2.32488  -3.04827  -4.11785
H    -0.97875  -2.16502  -3.39074
C    -4.03462  -2.89140  -2.28235
H    -4.62303  -2.53844  -1.44217
H    -4.50187  -2.53624  -3.20234
H    -4.01600  -3.98423  -2.28741
C    -4.71094   0.49270  -0.20420
C    -5.97263   1.05517  -0.72398
C    -6.22813   1.03578  -2.09185
H    -5.49130   0.60259  -2.74825
C    -7.39907   1.57604  -2.58891
H    -7.58880   1.56414  -3.65194
C    -8.32728   2.13760  -1.72698
H    -9.24095   2.56210  -2.11611
C    -8.08229   2.15194  -0.36430
H    -8.80773   2.58150   0.31062
C    -6.91044   1.61526   0.13803
H    -6.73580   1.61090   1.20403
O    -0.90196   0.02441   1.38144
