31

Cd    0.00000   0.00000   0.00000
Cl   -1.00896  -1.74895   1.33138
N    -1.78202   1.09604  -4.02759
C    -2.26386   2.33579  -4.27616
N    -2.62916   3.18779  -3.37813
C    -2.47309   2.74488  -2.11020
C    -2.00003   1.47920  -1.74766
C    -1.59270   0.57302  -2.76192
S    -0.96193  -0.93805  -2.57376
N    -1.96237   1.38366  -0.38856
C    -2.38043   2.53563   0.05755
N    -2.71545   3.39570  -0.94392
H    -1.47360   0.50342  -4.79049
H    -2.35028   2.62861  -5.31218
H    -2.46046   2.78552   1.09848
H    -3.02473   4.35056  -0.85420
S     0.95969   0.93913   2.57461
N     1.96570  -1.37866   0.38750
C     1.59509  -0.57012   2.76142
C     2.00477  -1.47456   1.74652
C     2.38700  -2.52915  -0.05939
N     1.78678  -1.09333   4.02675
C     2.48196  -2.73892   2.10824
N     2.72556  -3.38852   0.94151
H     2.46701  -2.77835  -1.10048
C     2.27199  -2.33189   4.27443
H     1.47679  -0.50195   4.78998
N     2.63966  -3.18226   3.37578
H     3.03727  -4.34251   0.85114
H     2.35910  -2.62522   5.31022
O     0.69156   1.19116  -0.90850
