45

Pd    0.00000   0.00000   0.00000
I    -1.94591   0.26717   1.76455
N    -1.01943  -1.38616  -0.93700
N     1.01588   1.38782   0.93837
C    -0.61542  -2.64428  -0.79587
H     0.27853  -2.80342  -0.19263
C    -1.27804  -3.70466  -1.38255
H    -0.91833  -4.71076  -1.24101
C    -2.40163  -3.44041  -2.15339
H    -2.94015  -4.24260  -2.63395
C    -2.82026  -2.13074  -2.29334
H    -3.68497  -1.87981  -2.88734
C    -2.10718  -1.11160  -1.66695
C    -2.55614   0.29330  -1.72781
C    -3.88450   0.59549  -1.43752
H    -4.57331  -0.20313  -1.20456
C    -4.30603   1.91143  -1.38757
H    -5.33223   2.13391  -1.13828
C    -3.41324   2.93934  -1.63970
H    -3.74218   3.96652  -1.58931
C    -2.09826   2.64798  -1.96514
H    -1.40743   3.44712  -2.19726
C    -1.65972   1.33283  -2.00318
H    -0.64830   1.11965  -2.34989
C     0.60332   2.64355   0.79983
H    -0.28828   2.79859   0.19197
C     1.25396   3.70649   1.39503
H     0.88702   4.71028   1.25576
C     2.37452   3.44757   2.17210
H     2.90322   4.25173   2.66017
C     2.80269   2.14069   2.30850
H     3.66552   1.89389   2.90694
C     2.10152   1.11858   1.67330
C     2.56247  -0.28248   1.73038
C     3.89555  -0.57021   1.44704
H     4.57805   0.23640   1.22315
C     4.33015  -1.88162   1.39202
H     5.35999  -2.09269   1.14781
C     3.44570  -2.91951   1.63229
H     3.78480  -3.94315   1.57771
C     2.12596  -2.64267   1.95091
H     1.44159  -3.44997   2.17380
C     1.67441  -1.33215   1.99382
H     0.65829  -1.13091   2.33456
O     1.21786  -0.17157  -1.09995
