55

Co    0.00000   0.00000   0.00000
O     0.83553   1.67043   0.38629
O     2.78394   2.99731   1.53441
O     1.63090  -0.70903  -0.50853
O     3.67553  -1.65669  -1.76414
N    -0.25167   0.58476  -1.79490
N     0.23139  -0.40236   1.79491
N    -1.77989   0.77637   0.50998
H    -1.58961   1.77755   0.59282
C     1.77325   2.09755  -0.38695
C     2.85634   2.84308   0.17553
C     3.86104   3.32761  -0.62802
H     4.69341   3.86664  -0.20225
C     3.83312   3.12267  -2.01194
H     4.63869   3.51099  -2.61613
C     2.79291   2.44397  -2.58596
H     2.76251   2.28484  -3.65401
C     1.75812   1.92057  -1.79406
C     0.62713   1.29753  -2.40106
H     0.48192   1.51077  -3.46397
C    -1.48668   0.27220  -2.47068
H    -1.68542  -0.79737  -2.36627
H    -1.42280   0.53291  -3.53475
C    -2.62571   1.06575  -1.81516
H    -2.36417   2.12821  -1.80671
H    -3.52996   0.94135  -2.41252
C    -2.91636   0.58297  -0.39707
H    -3.79925   1.10737  -0.00437
H    -3.12295  -0.49010  -0.42718
C    -2.06938   0.25167   1.84869
H    -2.42976  -0.77337   1.72672
H    -2.83327   0.84853   2.36320
C    -0.76241   0.22650   2.63399
H    -0.43149   1.25282   2.83979
H    -0.88265  -0.30706   3.58413
C     1.20091  -1.06622   2.32035
H     1.20338  -1.21300   3.40271
C     2.29167  -1.62556   1.60815
C     3.25202  -2.39513   2.30040
H     3.11231  -2.56319   3.35854
C     4.32876  -2.92073   1.65028
H     5.05846  -3.51458   2.17889
C     4.50306  -2.69223   0.27607
H     5.36657  -3.11793  -0.21117
C     3.59671  -1.94777  -0.43290
C     2.43792  -1.39032   0.21395
C     3.83557   3.66481   2.18013
H     3.58639   3.65485   3.24049
H     4.79226   3.15284   2.02981
H     3.92468   4.70318   1.84088
C     4.75279  -2.18137  -2.49322
H     4.61035  -1.83962  -3.51732
H     5.71361  -1.80967  -2.11918
H     4.75758  -3.27698  -2.47531
O    -0.71669  -1.47153  -0.20849
