48

Pd    0.00000   0.00000   0.00000
P     0.90412   2.26691   1.46495
C     1.86379   4.61193   2.63105
H     2.82438   4.33901   2.21500
C    -0.61622   5.28565   3.68935
H    -1.57762   5.55090   4.10310
C     2.41334   1.36209   1.91877
C     0.77011   3.77090   2.45280
C     2.98354   1.53080   3.17505
H     2.58573   2.27334   3.85118
C     0.47426   6.12002   3.87605
H     0.36122   7.03573   4.43714
C     1.71102   5.78581   3.34556
H     2.55676   6.44167   3.49109
C     4.52367  -0.24804   2.69982
H     5.34293  -0.88057   3.00766
C     3.95319  -0.41744   1.44717
H     4.32751  -1.17627   0.77669
C    -0.47200   4.11178   2.97243
H    -1.30928   3.44574   2.81662
C     4.04143   0.72498   3.55953
H     4.48095   0.85050   4.53770
C     2.89512   0.38204   1.04973
H     2.45805   0.24858   0.05054
O     0.03310   0.97362   3.84300
N    -0.33514   1.21717   1.61010
N    -0.73633  -1.42675   1.43981
C    -0.37984   0.53528   2.77832
C    -0.94843  -0.84491   2.63002
C    -1.17092  -2.66543   1.24147
H    -0.96782  -3.08793   0.26309
C     0.88082   2.66741  -0.28640
C     0.46603   1.59149  -1.09795
C     0.40058   1.82240  -2.47051
H     0.09515   1.02381  -3.13437
C    -1.83585  -3.38119   2.22648
H    -2.17793  -4.38389   2.02472
C    -1.58511  -1.50051   3.67344
H    -1.70784  -0.99114   4.61630
C    -2.04427  -2.79114   3.46404
H    -2.55277  -3.32657   4.25190
C     1.22824   3.90802  -0.80745
H     1.53917   4.70888  -0.14925
C     0.73851   3.06096  -2.99521
H     0.67893   3.21944  -4.06258
C     1.15274   4.10004  -2.17410
H     1.41221   5.05818  -2.60018
O     0.27184  -1.08318  -1.21463
