35

Re    0.00000   0.00000   0.00000
C    -0.35893  -0.61054  -1.80589
C     3.59372  -1.83217   1.29776
H     3.95639  -0.93585   1.78046
C     0.38997   2.97709  -0.94417
H    -0.69186   2.98332  -0.98036
C     2.59398  -1.74242   0.32933
C     4.05809  -3.06917   1.69453
H     4.81365  -3.12887   2.46410
O    -0.54972  -0.97156  -2.87841
C     2.87447   0.48399  -0.26688
H     3.95375   0.37699  -0.19753
O    -2.78458   1.29239   0.39782
C    -0.56473  -1.67986   0.82601
N     2.07184  -0.50484  -0.06231
C     2.31543   1.76753  -0.59995
N     0.96605   1.81433  -0.65621
O    -0.81491  -2.64146   1.39095
C     2.07745  -2.91065  -0.23103
H     1.30298  -2.84033  -0.98301
C     3.56246  -4.23909   1.12804
C     1.10731   4.13488  -1.18337
H     0.58552   5.05149  -1.40495
C    -1.78488   0.76852   0.21208
C     2.57011  -4.13853   0.15846
H     2.16873  -5.03483  -0.29050
C     4.09224  -5.57035   1.55751
H     3.45488  -6.37629   1.20382
H     4.16044  -5.62364   2.64219
H     5.09379  -5.72145   1.15378
C     3.10721   2.89370  -0.83382
H     4.18079   2.80754  -0.77103
C     2.49581   4.09491  -1.12581
H     3.08152   4.98368  -1.30185
O     0.36395   0.56371   1.50741
