29

Zn    0.00000   0.00000   0.00000
Cl    1.87929   1.10187   0.39908
S    -2.43026   0.51637  -0.31058
S    -0.07191  -1.58984   2.00946
N    -2.34373  -2.20000  -0.66063
N    -4.19408  -1.45061   0.19755
N     2.24052  -2.27893   0.77247
N     2.51919  -1.53763   2.79472
C    -2.97459  -1.08693  -0.25394
C    -3.15848  -3.27647  -0.45371
C    -4.31417  -2.81208   0.07603
C    -5.19026  -0.55788   0.71582
C     1.59800  -1.78893   1.84659
C     3.58394  -2.29014   1.02354
C     3.75777  -1.83566   2.28606
C     2.25293  -0.94934   4.07576
H    -1.38767  -2.21777  -1.05096
H    -2.85129  -4.27156  -0.69674
H    -5.20238  -3.32712   0.37679
H    -5.95693  -0.35964  -0.03579
H    -4.70608   0.38198   0.97863
H    -5.65452  -0.99531   1.59867
H     1.77588  -2.43522  -0.12642
H     4.29583  -2.61520   0.29445
H     4.64934  -1.69347   2.86011
H     2.73321  -1.52998   4.86320
H     1.17446  -0.94187   4.22950
H     2.62510   0.07644   4.10006
O     0.32545  -1.15399  -1.13353
