37

Pd    0.00000   0.00000   0.00000
Cl   -1.28337  -0.82651   1.70470
N     1.40698  -1.25997   0.45663
C     1.43362  -2.44864  -0.10289
H     0.65271  -2.66870  -0.83079
C     2.40770  -3.40774   0.20242
H     2.37875  -4.36719  -0.28907
C     3.37744  -3.10669   1.12222
H     4.14278  -3.82202   1.38447
C     3.37462  -1.83822   1.73714
C     4.33133  -1.44004   2.69371
H     5.10570  -2.13965   2.97195
C     4.27631  -0.19464   3.25458
H     5.01120   0.10410   3.98681
C     3.26694   0.71012   2.88645
H     3.24451   1.68891   3.34125
C     2.32140   0.35878   1.96248
H     1.52683   1.05770   1.66426
C     2.35303  -0.92208   1.36936
N    -1.40714   1.26003  -0.45597
C    -1.43280   2.44872   0.10357
H    -0.65139   2.66839   0.83108
C    -2.40643   3.40841  -0.20125
H    -2.37672   4.36784   0.29024
C    -3.37681   3.10794  -1.12057
H    -4.14188   3.82370  -1.38245
C    -3.37502   1.83949  -1.73553
C    -4.33243   1.44190  -2.69164
H    -5.10657   2.14193  -2.96949
C    -4.27838   0.19650  -3.25258
H    -5.01377  -0.10183  -3.98447
C    -3.26933  -0.70885  -2.88500
H    -3.24763  -1.68763  -3.33984
C    -2.32314  -0.35809  -1.96149
H    -1.52880  -1.05741  -1.66364
C    -2.35379   0.92274  -1.36828
O     0.92488   0.59497  -1.23008
