64

Os    0.00000   0.00000   0.00000
Cl    1.82830   1.18264  -0.86267
B    -1.59571  -2.66597  -0.86816
H    -2.17229  -3.65765  -1.14131
B     2.40868   0.97962   0.96221
N    -2.03151  -2.10058   0.48963
N    -1.48895  -0.98154   0.97972
N    -1.81555  -1.55636  -1.90745
N    -1.17801  -0.38695  -1.76560
N    -0.07238  -2.88420  -0.81580
N     0.76009  -1.86597  -0.56318
N     1.18061   0.23064   1.42955
C    -3.00489  -2.52082   1.31139
H    -3.56785  -3.40584   1.09569
C    -3.09091  -1.63977   2.36736
H    -3.76071  -1.67746   3.20059
C    -2.11254  -0.68144   2.10921
H    -1.84847   0.18742   2.67909
C    -1.50473   0.38134  -2.79634
H    -1.11501   1.37658  -2.88917
C    -2.37983  -0.30723  -3.63335
H    -2.82313   0.04262  -4.54207
C    -2.54697  -1.53640  -3.02852
H    -3.13219  -2.38344  -3.32375
C     2.00548  -2.32182  -0.65998
H     2.85207  -1.68494  -0.48837
C     1.97891  -3.67542  -0.98346
H     2.81674  -4.32466  -1.12775
C     0.63746  -3.98794  -1.07719
H     0.15426  -4.91415  -1.31235
C     1.00224  -0.21034   2.71709
C     0.70671  -1.55990   2.97176
H     0.68400  -2.25602   2.14544
C     0.50187  -2.00490   4.26071
H     0.28875  -3.04936   4.43517
C     0.56643  -1.12176   5.32721
H     0.39486  -1.47169   6.33362
C     0.85964   0.21192   5.09087
H     0.91483   0.90708   5.91535
C     1.08799   0.66707   3.80822
H     1.30577   1.70646   3.62217
C     3.75619   0.08383   0.99219
C     4.68413   0.16926  -0.04439
H     4.48670   0.82595  -0.87885
C     5.85338  -0.57073  -0.02664
H     6.55373  -0.48472  -0.84512
C     6.12666  -1.41553   1.03507
H     7.03757  -1.99627   1.05021
C     5.22545  -1.50249   2.08143
H     5.43068  -2.15028   2.92195
C     4.05844  -0.75788   2.05946
H     3.37439  -0.83289   2.89260
C     2.64003   2.42924   1.64370
C     3.72952   2.67453   2.47561
H     4.43723   1.88208   2.67281
C     3.92251   3.91578   3.05661
H     4.77842   4.08122   3.69581
C     3.02476   4.94203   2.81833
H     3.17324   5.91167   3.27189
C     1.93554   4.71494   1.99551
H     1.22595   5.50671   1.80317
C     1.74527   3.47272   1.41550
H     0.88647   3.31518   0.78157
O    -0.88995   1.38043   0.15780
