54

Ir    0.00000   0.00000   0.00000
Cl   -1.43295  -0.48912  -1.82215
C     0.88887   1.35224  -0.94329
O     1.46102   2.20264  -1.44178
P     1.37800  -1.82415  -0.68665
C     2.62341  -1.30565  -1.94433
C     1.98850  -0.87760  -3.26184
C     0.41066  -3.16522  -1.48950
C     1.23658  -4.34551  -1.98542
C     2.46331  -2.68606   0.52362
C     1.75120  -3.50507   1.59170
P    -1.68289   1.54186   0.77265
C    -2.86408   0.73763   1.92499
C    -3.92141   1.63110   2.56061
C    -2.76320   2.21518  -0.55512
C    -1.98879   2.88679  -1.68234
C    -1.01362   3.03100   1.64471
C    -1.86085   4.29958   1.60865
P     1.35014   0.42528   1.83822
F     2.82923   0.36771   0.92222
F     0.18759   0.61656   3.05514
F     1.83279   1.88540   2.23909
F     2.08350  -0.55375   2.83520
H     3.32533  -2.12780  -2.10582
H     3.18008  -0.47770  -1.49815
H     2.71838  -0.36501  -3.88454
H     1.15116  -0.20331  -3.08863
H     1.61508  -1.73758  -3.81253
H    -0.13102  -2.70404  -2.31818
H    -0.33473  -3.49368  -0.76117
H     0.57991  -5.04895  -2.49393
H     1.71770  -4.87305  -1.16573
H     1.99997  -4.02996  -2.69322
H     3.10250  -1.93548   0.98887
H     3.10374  -3.33650  -0.08254
H     2.48807  -4.04447   2.18376
H     1.06633  -4.22596   1.15091
H     1.18434  -2.86596   2.26129
H    -2.26009   0.26666   2.70449
H    -3.33529  -0.06533   1.34938
H    -4.58777   1.01347   3.15973
H    -4.52381   2.14330   1.81371
H    -3.46667   2.36417   3.22159
H    -3.45769   2.91895  -0.09028
H    -3.33482   1.37412  -0.95432
H    -2.67718   3.39150  -2.35708
H    -1.44432   2.13948  -2.25435
H    -1.27902   3.61934  -1.30335
H    -0.03242   3.24521   1.21235
H    -0.84474   2.72381   2.67863
H    -1.37959   5.05715   2.22446
H    -2.86016   4.13601   2.00038
H    -1.94481   4.69594   0.60040
O    -0.69598  -1.21172   0.87742
