43

Au    0.00000   0.00000   0.00000
P    -1.01372   0.96900   1.74207
O    -1.91571  -1.30811   2.68279
O    -3.98977  -0.51050   3.41383
C    -0.33089   4.63971   3.47175
H    -0.88349   5.43970   3.94189
O    -3.45879   1.66423   2.73616
C    -0.29383   2.49202   2.40306
C     0.14612  -0.66730   3.66675
H     0.73286   0.17532   4.02927
H     0.66332  -1.13897   2.83183
H     0.03254  -1.40079   4.46168
C    -1.22160  -0.18616   3.20196
C     1.08779   2.60247   2.24679
H     1.62628   1.80692   1.74604
C    -4.35365   1.30892   4.88583
H    -3.95089   2.25629   5.22981
H    -4.42064   0.60805   5.71111
H    -5.34320   1.46615   4.46800
C    -3.44989   0.73205   3.80210
C    -1.00613   3.52198   3.01436
H    -2.07806   3.45211   3.12561
C     1.04377   4.73894   3.32817
H     1.56108   5.61521   3.68868
C    -2.85595   1.22332   1.53106
C    -3.27336  -1.08852   2.34295
C    -3.87365  -2.46109   2.06678
H    -4.92535  -2.35663   1.82194
H    -3.77022  -3.07423   2.95659
H    -3.33894  -2.92546   1.24467
C    -2.01848   0.49394   4.31069
H    -1.54978   1.43688   4.59577
H    -2.06898  -0.16653   5.17831
C    -3.39250  -0.15165   1.13012
H    -4.44470  -0.07461   0.85090
H    -2.81620  -0.55100   0.29187
C    -3.11026   2.26986   0.45303
H    -2.64177   1.94822  -0.47627
H    -2.68957   3.22850   0.74977
H    -4.17979   2.39054   0.29611
C     1.75405   3.71921   2.71430
H     2.82372   3.79855   2.59323
O     0.71564  -0.72685  -1.29693
