62

Pd    0.00000   0.00000   0.00000
P    -1.69787  -0.34598  -1.38263
N     1.49774   0.48494   1.35401
C    -0.36683   1.96001   0.14745
C    -0.56841   2.37592   1.46534
C    -0.79932   3.71383   1.74387
H    -0.96175   4.03105   2.76592
C    -0.82698   4.64246   0.71601
H    -1.01749   5.68314   0.93588
C    -0.59670   4.23866  -0.58615
H    -0.60017   4.96336  -1.38843
C    -0.36661   2.90003  -0.87036
H    -0.19376   2.60162  -1.90069
C     1.03526   0.90021   2.65467
H     1.64014   1.74090   3.02249
H     1.13640   0.06709   3.36464
C    -0.43702   1.34265   2.56241
H    -1.06186   0.45978   2.33079
H    -0.75385   1.74501   3.52677
C     2.72961   0.35574   1.07304
C     3.82998   0.54991   2.07019
H     3.86395   1.59187   2.39303
H     4.79181   0.28356   1.64281
H     3.65034  -0.06422   2.95255
C     3.11935  -0.01172  -0.32053
H     2.25552   0.09988  -0.99977
H     3.45038  -1.05205  -0.34549
H     3.93861   0.61852  -0.66395
C    -1.11305  -1.33663  -2.78511
C    -1.74701  -2.44726  -3.32157
H    -2.69307  -2.78125  -2.92084
C    -1.14061  -3.14462  -4.35346
H    -1.62683  -4.01640  -4.76575
C     0.08807  -2.74058  -4.84638
H     0.55693  -3.29550  -5.64532
C     0.73092  -1.63810  -4.30266
H     1.69904  -1.33618  -4.67503
C     0.13475  -0.94407  -3.26967
H     0.63269  -0.08815  -2.80521
C    -2.57636   1.03923  -2.17300
C    -2.53577   1.30384  -3.53515
H    -1.99061   0.64619  -4.19912
C    -3.19298   2.41362  -4.03945
H    -3.16061   2.61861  -5.09987
C    -3.88479   3.26039  -3.19067
H    -4.39091   4.12744  -3.58898
C    -3.92642   2.99900  -1.82932
H    -4.46166   3.66186  -1.16565
C    -3.27287   1.89454  -1.32233
H    -3.28513   1.68545  -0.25863
C    -3.09694  -1.20556  -0.61420
C    -4.28036  -1.44916  -1.30586
H    -4.37932  -1.12477  -2.33360
C    -5.32574  -2.09024  -0.66815
H    -6.24215  -2.28852  -1.20514
C    -5.20261  -2.47582   0.65818
H    -6.02183  -2.98053   1.14871
C    -4.03759  -2.20813   1.35752
H    -3.94735  -2.49961   2.39350
C    -2.98788  -1.56980   0.72294
H    -2.06338  -1.35595   1.26049
O     0.34161  -1.61278   0.06884
