45

C    -1.73525   0.37606   1.10442
H    -2.61920  -0.13103   0.72044
H    -1.89678   1.43400   1.30710
C    -0.83197  -0.35533   1.91784
H    -0.32494   0.16077   2.73414
C    -1.05699  -1.83692   2.13053
H    -1.94798  -1.99339   2.74991
H    -0.20875  -2.27379   2.66884
C    -1.20925  -2.51877   0.79576
C    -1.71165  -3.80373   0.66971
H    -2.02886  -4.34084   1.55318
C    -1.81335  -4.39997  -0.57566
H    -2.21129  -5.40146  -0.65850
C    -1.41664  -3.71939  -1.71568
C    -0.91284  -2.42611  -1.58618
H    -0.61987  -1.90240  -2.48612
C    -0.80145  -1.82253  -0.34637
C    -1.52645  -4.33699  -3.07711
H    -1.91601  -5.35015  -3.01496
H    -0.55259  -4.36615  -3.56467
H    -2.19146  -3.74515  -3.70446
C     2.38569  -1.68588  -1.17944
H     1.68077  -2.50695  -1.14521
C     3.62051  -1.84041  -1.80325
H     3.87159  -2.78616  -2.25618
C     4.50040  -0.78244  -1.82692
H     5.46768  -0.86603  -2.29948
C     4.12386   0.42782  -1.22681
C     4.97268   1.57095  -1.21352
H     5.94289   1.48610  -1.68044
C     4.57435   2.73085  -0.64194
H     5.21688   3.59889  -0.63812
C     3.28940   2.84830  -0.04130
C     2.83045   4.04332   0.53094
H     3.46873   4.91456   0.53071
C     1.56768   4.08364   1.07325
H     1.17512   4.98519   1.51572
C     0.78093   2.93364   1.03665
H    -0.22008   2.95182   1.44774
C     2.42169   1.73191  -0.02932
C     2.84761   0.50111  -0.62451
N     2.00173  -0.55582  -0.60837
N     1.18397   1.79713   0.50746
Pt    0.00000   0.00000   0.00000
O    -0.27779   0.71841  -1.45918
