55

Pt    0.00000   0.00000   0.00000
N     1.69927  -0.47988  -1.73897
N     1.44730  -1.42169   1.06466
C    -1.30817   0.51072   1.51429
H    -1.96646  -0.33747   1.69941
H    -1.91349   1.37876   1.25492
H    -0.75396   0.73366   2.42427
C    -1.15055   1.15876  -1.23835
H    -0.82904   0.92583  -2.25860
H    -1.05213   2.23192  -1.07403
H    -2.20479   0.89158  -1.14791
C     1.10471   1.65686   0.55154
H     2.10919   1.32233   0.82046
H     0.70062   2.18489   1.41420
H     1.18906   2.38200  -0.25780
C     1.23174  -1.37513  -2.79749
H     0.38783  -0.92342  -3.31622
H     0.90195  -2.32796  -2.39410
H     2.03062  -1.56734  -3.52735
C     2.24449   0.70981  -2.39040
H     2.64836   1.40081  -1.65462
H     1.45834   1.21646  -2.94730
H     3.04721   0.43950  -3.09098
C     2.76294  -1.13335  -0.97098
H     3.33599  -0.36419  -0.44340
H     3.45467  -1.66821  -1.64139
C     2.21629  -2.11641   0.06277
H     3.05133  -2.67308   0.51559
H     1.55661  -2.84187  -0.42534
C     1.61680  -1.72590   2.27722
H     2.35399  -2.49258   2.56100
C     0.86241  -1.11594   3.38146
C    -0.36044  -1.67888   3.77025
C    -0.89689  -2.83194   3.14214
H    -0.33662  -3.30801   2.35203
C    -2.10884  -3.32864   3.51181
H    -2.51425  -4.19402   3.01072
C    -2.85007  -2.71358   4.54217
H    -3.81057  -3.12415   4.81593
C    -2.36026  -1.61739   5.18293
H    -2.91941  -1.14282   5.97658
C    -1.10645  -1.06119   4.82199
C    -0.59645   0.07237   5.44783
H    -1.16989   0.54415   6.23357
C     0.63110   0.61771   5.08343
C     1.15742   1.77334   5.71547
H     0.57901   2.23115   6.50502
C     2.35677   2.29432   5.33932
H     2.74867   3.17629   5.82391
C     3.10720   1.68422   4.31257
H     4.06158   2.10769   4.03538
C     2.63636   0.57536   3.67955
H     3.21615   0.10521   2.89722
C     1.38484   0.00843   4.03277
O    -0.88055  -1.34264  -0.38005
