49

Zr    0.00000   0.00000   0.00000
Cl    0.23419  -1.59783   1.70123
C    -1.13801   1.46781  -2.77056
C    -0.87443   5.32905  -4.59003
C    -0.96844   4.00213  -3.96587
C    -1.19998   0.16408  -2.11068
C    -1.43313   2.62386  -2.03799
H    -1.72078   2.53761  -0.99329
C    -0.75802   1.60269  -4.10637
H    -0.53421   0.71882  -4.68627
C    -0.67879   2.84965  -4.69334
H    -0.36999   2.93587  -5.72486
C     1.70836   1.22821  -1.31676
H     1.61226   1.54177  -2.34891
C    -1.34705   3.86725  -2.62976
H    -1.58981   4.74981  -2.05639
C    -0.67372  -1.95793  -1.38649
C    -0.30169  -0.92825  -2.27995
H     0.47183  -1.00082  -3.03511
C    -1.34288   5.53964  -5.88500
H    -1.79766   4.72241  -6.42590
C    -1.25686   6.78917  -6.46978
H    -1.63095   6.93970  -7.47204
C    -0.69592   7.84697  -5.77397
H    -0.62708   8.82232  -6.23238
C    -0.22387   7.64810  -4.48737
H     0.21841   8.46861  -3.94127
C    -0.31481   6.40097  -3.89823
H     0.07004   6.24846  -2.90035
C     1.86049   1.33392   0.96339
H     1.84560   1.71534   1.97833
C     2.44629   0.12085   0.54392
H     2.96612  -0.58580   1.17951
C     1.40287   2.02063  -0.18755
H     1.00517   3.02869  -0.20638
C    -2.15034  -0.22090  -1.12051
H    -3.04060   0.33504  -0.84792
C    -1.83262  -1.52508  -0.67728
C    -2.63657  -2.32940   0.30205
H    -3.15678  -1.66670   0.99543
H    -1.99528  -3.00003   0.87325
H    -3.38167  -2.93291  -0.22113
C    -0.01088  -3.30018  -1.26069
H    -0.70832  -4.09638  -1.52491
H     0.32253  -3.47246  -0.23409
H     0.84997  -3.36386  -1.92530
C     2.33492   0.04151  -0.86195
H     2.79746  -0.71487  -1.48545
O    -0.93551   0.92885   0.99224
