34

Ru    0.00000   0.00000   0.00000
Cl    1.82253  -1.40784  -0.19276
O     0.45342   1.53076  -2.33158
O    -0.42737  -0.80671   1.73188
N     0.27304   0.81409  -1.43383
N     1.18755   1.47676   1.13207
H     2.04542   1.66596   0.61006
N    -1.55805   1.29318   0.65496
C    -0.56503  -0.21642   2.88433
C    -1.66912  -0.50046   3.70857
H    -2.37132  -1.24914   3.37362
C    -1.84219   0.16504   4.90119
H    -2.69921  -0.06235   5.51804
C    -0.92928   1.12462   5.31709
H    -1.07268   1.64346   6.25217
C     0.17730   1.39840   4.53391
H     0.90609   2.12654   4.86495
C     0.37291   0.74454   3.32973
C     1.57889   0.99316   2.46967
H     2.12906   0.05547   2.31586
H     2.24202   1.72217   2.95541
C    -2.81730   0.89183   0.77352
H    -3.10550   0.06439   0.13417
C    -3.69560   1.49090   1.65958
H    -4.71154   1.13935   1.73151
C    -3.23816   2.53587   2.44887
H    -3.89159   3.01874   3.15845
C    -1.92245   2.94762   2.32005
H    -1.53122   3.75038   2.92440
C    -1.09627   2.29389   1.41598
C     0.34668   2.68006   1.19449
H     0.68311   3.35508   1.99176
H     0.41698   3.20910   0.23528
O    -0.99812  -1.12855  -0.67279
