70

Pd    0.00000   0.00000   0.00000
Cl   -0.96540  -1.60317  -1.25664
P     1.12343   1.42093   1.26492
N    -0.26597  -1.01825   1.73458
N     0.95906   0.62858   2.81109
C     0.25797  -0.53626   2.79543
H     0.14283  -1.02630   3.76514
C    -1.11052  -2.14645   1.76812
C    -2.49163  -1.93990   1.73487
C    -3.32519  -3.04503   1.74804
H    -4.39506  -2.89674   1.71661
C    -2.81388  -4.33541   1.77169
C    -1.43700  -4.51110   1.74655
H    -1.02967  -5.51154   1.71364
C    -0.57000  -3.43114   1.73465
C    -3.01831  -0.54142   1.61096
H    -2.78199   0.05047   2.49837
H    -4.09571  -0.54590   1.47026
H    -2.55133  -0.06157   0.72803
C    -3.72988  -5.52086   1.81096
H    -3.86165  -5.85765   2.84023
H    -3.31608  -6.34705   1.23774
H    -4.70778  -5.26849   1.40910
C     0.91382  -3.60071   1.60905
H     1.28461  -2.93161   0.82517
H     1.16128  -4.62424   1.34181
H     1.42254  -3.35181   2.54113
C     1.81945   0.90210   3.91660
C     1.47947   1.89302   4.83965
C     2.36498   2.17472   5.86968
H     2.10684   2.94483   6.58227
C     3.56495   1.49181   6.00838
C     3.86236   0.48922   5.09865
H     4.78368  -0.06589   5.19929
C     3.00735   0.17672   4.05099
C     0.18579   2.64442   4.75512
H     0.34120   3.62316   4.30180
H    -0.21958   2.79960   5.75284
H    -0.54562   2.10735   4.15685
C     4.49626   1.81305   7.13588
H     4.54861   2.88722   7.29889
H     5.49538   1.43557   6.93505
H     4.13716   1.35322   8.05670
C     3.38182  -0.93468   3.11669
H     3.21746  -1.89638   3.60424
H     4.43751  -0.86847   2.86138
H     2.80544  -0.91645   2.19320
C     2.91866   1.58037   1.06231
C     3.45230   0.88232  -0.01994
H     2.77734   0.34007  -0.68490
C     4.81675   0.89293  -0.24455
H     5.23027   0.35922  -1.08680
C     5.65112   1.58885   0.61616
H     6.71732   1.59740   0.44409
C     5.12345   2.27366   1.69961
H     5.77761   2.80968   2.37170
C     3.75893   2.27511   1.92828
H     3.35570   2.80092   2.78181
C     0.44242   3.08240   1.52303
C    -0.95178   3.11707   1.57282
H    -1.50229   2.18098   1.49503
C    -1.61736   4.32073   1.68529
H    -2.69606   4.34421   1.72574
C    -0.89327   5.50358   1.72188
H    -1.40938   6.44861   1.80193
C     0.48768   5.47681   1.62378
H     1.04567   6.40161   1.61942
C     1.16078   4.27093   1.51541
H     2.23481   4.26018   1.40821
O     0.20524   0.95948  -1.32656
