53

Pd    0.00000   0.00000   0.00000
Cl    1.44905   1.01409  -1.47824
O     2.68392  -4.30028  -1.75972
O     2.95441   1.27343   4.32170
N    -0.26629  -1.45308  -1.31133
N     1.77781  -2.39835  -0.91306
N     0.15579   1.49115   1.29215
N     1.85596   0.52274   2.48030
C    -1.46204  -1.55557  -2.13699
C    -1.15508  -2.70729  -3.12973
H    -1.97365  -3.42281  -3.16209
H    -1.01314  -2.30686  -4.13281
C     0.14436  -3.34611  -2.61678
H     0.90756  -3.46301  -3.38491
H    -0.01033  -4.32695  -2.16419
C     0.58054  -2.37228  -1.56998
C     2.78322  -3.33108  -1.05130
C     3.98618  -2.99788  -0.20506
H     4.32696  -1.98666  -0.41817
H     4.78409  -3.70274  -0.41829
H     3.72110  -3.07061   0.84839
C    -2.65493  -1.86714  -1.22957
H    -3.57336  -1.89854  -1.81027
H    -2.74432  -1.09616  -0.46053
H    -2.51251  -2.82400  -0.73201
C    -1.66631  -0.20533  -2.82946
H    -2.56955  -0.21868  -3.43415
H    -0.81168   0.02767  -3.46229
H    -1.75312   0.58333  -2.06961
C    -0.76167   2.62572   1.28711
C    -0.57233   3.27461   2.68093
H    -0.55557   4.35987   2.61495
H    -1.39038   2.98245   3.33941
C     0.75330   2.69957   3.19885
H     0.72404   2.39786   4.24439
H     1.59046   3.39057   3.08274
C     0.94520   1.52246   2.29582
C     2.77717   0.41065   3.49994
C     3.53008  -0.89461   3.43923
H     4.12825  -0.93036   2.53048
H     2.82953  -1.72737   3.43898
H     4.18732  -0.97353   4.29984
C    -2.17465   2.08493   1.05498
H    -2.89798   2.89645   1.04717
H    -2.43935   1.37575   1.83913
H    -2.20914   1.56630   0.08420
C    -0.36248   3.57540   0.15433
H    -1.07666   4.39122   0.07830
H    -0.33618   3.03461  -0.79184
H     0.62879   3.98470   0.33535
H     1.72308  -0.26571   1.83299
H     1.92793  -1.57001  -0.32062
O    -0.57512  -0.95216   1.21866
