36

Br   -5.09670   2.27242   4.76673
Zn    0.00000   0.00000   0.00000
O    -1.74560  -0.37251   0.54685
N     0.13826   1.71983   0.99709
N     0.47299   0.91754  -1.76846
N     1.81072   2.20355  -2.96283
H     2.38788   2.98900  -3.21618
C    -2.40294   0.23993   1.45970
C    -1.97897   1.44302   2.11369
C    -2.80726   2.02420   3.09549
H    -2.47971   2.93068   3.58492
C    -4.00313   1.45719   3.43483
C    -4.44156   0.28395   2.81168
H    -5.38918  -0.15090   3.09261
C    -3.66213  -0.29654   1.85321
H    -3.97882  -1.20303   1.36096
C    -0.77028   2.12552   1.80977
H    -0.62525   3.08677   2.32023
C     1.24539   2.57588   0.67165
H     2.16586   1.98905   0.73434
H     1.30893   3.42768   1.36394
C     1.08457   3.11937  -0.76072
H     0.12211   3.63809  -0.82241
H     1.87791   3.84318  -0.95822
C     1.11764   2.05902  -1.80583
C     0.75834   0.26005  -2.94225
C     1.60834   1.07082  -3.71837
C     2.06568   0.66684  -4.96264
H     2.71827   1.28895  -5.55525
C     1.64932  -0.57391  -5.40251
H     1.98410  -0.93053  -6.36457
C     0.81031  -1.38517  -4.63373
H     0.52188  -2.34967  -5.02204
C     0.34961  -0.98692  -3.39657
H    -0.28997  -1.60734  -2.78818
O     1.20519  -1.11869   0.13617
