53

B     2.74937  -0.41146   0.54670
C    -0.85858   2.00808   0.12898
H    -0.71065   2.52355  -0.82352
C     0.21859   1.94032   1.00447
H     1.15129   2.41461   0.68475
C     0.04602   1.86514   2.51021
H     0.88515   2.37602   2.98680
H    -0.86065   2.40821   2.78284
C    -0.01612   0.41947   3.04405
H     0.98869   0.10619   3.33709
H    -0.64319   0.37915   3.94148
C    -0.54084  -0.57880   2.03372
H    -0.20648  -1.60407   2.22090
C    -1.71694  -0.40665   1.31629
H    -2.20790  -1.30194   0.93230
C    -2.62692   0.78711   1.51236
H    -3.65545   0.47160   1.33441
H    -2.55903   1.11179   2.55303
C    -2.30571   1.95043   0.55613
H    -2.58006   2.90767   1.01384
H    -2.90384   1.82858  -0.34719
C     1.99568  -2.44523  -0.83904
C     4.23315  -3.29198  -1.45117
C     5.40425  -3.89336  -1.87479
H     5.36682  -4.77897  -2.48801
C     6.60644  -3.33022  -1.48982
H     7.53384  -3.77834  -1.80961
C     6.62436  -2.19595  -0.68779
H     7.56913  -1.77232  -0.38336
C     5.45448  -1.59451  -0.26543
H     5.49165  -0.72523   0.36636
C     4.23422  -2.13607  -0.65626
C     4.43767   1.53031   0.09083
C     5.15514   1.51025   1.28396
H     4.81958   0.90298   2.10857
C     6.29096   2.28848   1.39927
H     6.84662   2.27312   2.32415
C     6.72638   3.09002   0.35063
H     7.61985   3.68357   0.46277
C     6.01249   3.14443  -0.83203
H     6.32414   3.77427  -1.64932
C     4.87050   2.37243  -0.94475
C     2.76017   1.17340  -1.39503
N     2.97025  -1.67279  -0.34033
N     3.29365   0.82185  -0.21538
Ru    0.00000   0.00000   0.00000
S     0.34197  -2.31540  -0.64463
S     2.59496  -3.79726  -1.77289
S     1.28301   0.68815  -2.00239
S     3.75891   2.29636  -2.29174
H     1.52464  -0.24517   0.72190
H     3.29174  -0.55354   1.58630
O    -1.18112  -0.13613  -1.14408
