68

Nb    0.00000   0.00000   0.00000
Si    0.53198   3.58319  -0.18200
N    -0.55887   0.36843  -2.10587
C    -0.38437   1.66411  -2.00490
Cl    1.23044   0.37391   1.95351
N     0.07189   2.04650  -0.83646
C    -0.73534   2.61410  -3.08588
N    -1.61740   0.08159   0.69914
C    -2.02827   3.12509  -3.11313
H    -2.72824   2.81471  -2.35082
N     2.26233  -0.15506  -0.91268
C    -2.40234   4.01544  -4.10294
H    -3.40773   4.40975  -4.12016
Si   -1.05840  -0.66931  -3.40022
C    -1.49010   4.40202  -5.07114
H    -1.78232   5.09752  -5.84365
C    -0.20248   3.89545  -5.04695
H     0.51081   4.19545  -5.80082
C     0.17567   3.00364  -4.05780
H     1.18343   2.61170  -4.04547
C     0.47017  -1.74851  -3.80719
H     1.28525  -1.16775  -4.23364
H     0.22131  -2.53175  -4.51563
H     0.83767  -2.22967  -2.90329
C    -1.65235   0.21055  -4.98668
H    -2.48499   0.87810  -4.79363
H    -1.98192  -0.53021  -5.70696
H    -0.86566   0.79494  -5.45182
C    -2.46442  -1.72649  -2.66285
H    -2.17363  -2.06664  -1.67023
H    -2.67506  -2.59958  -3.27160
H    -3.38670  -1.15993  -2.56545
C    -0.43106   3.72420   1.45873
H    -1.47001   3.99908   1.29795
H     0.00749   4.46347   2.12083
H    -0.41253   2.76074   1.96601
C     2.41545   3.45884   0.14051
H     2.77880   4.32528   0.68327
H     2.98974   3.38466  -0.78040
H     2.63302   2.58014   0.74391
C     0.18059   5.09670  -1.29087
H    -0.87104   5.18113  -1.54207
H     0.73732   5.06255  -2.22126
H     0.46967   6.00135  -0.76723
C    -2.86690   0.07832   1.33895
C    -2.65989   0.49246   2.80870
H    -1.91461  -0.16266   3.25797
H    -3.59124   0.41870   3.36382
H    -2.29308   1.51495   2.85374
C    -3.44597  -1.34818   1.27602
H    -2.71126  -2.04498   1.67732
H    -3.64935  -1.61659   0.24250
H    -4.36410  -1.41555   1.85364
C    -3.80041   1.07154   0.62417
H    -4.77722   1.08944   1.10058
H    -3.90884   0.77471  -0.41719
H    -3.35980   2.06580   0.65877
C     3.11604  -0.94751  -0.27504
H     2.73413  -1.48235   0.58683
C     4.43576  -1.10358  -0.66967
H     5.08871  -1.75948  -0.11611
C     4.88988  -0.40575  -1.77596
H     5.91201  -0.50149  -2.11142
C     3.99898   0.41968  -2.44333
H     4.30355   0.98392  -3.31141
C     2.69977   0.51037  -1.97336
H     1.97665   1.14528  -2.46982
O     0.15127  -1.64208  -0.05635
