47

Zr    0.00000   0.00000   0.00000
Cl    1.72687  -1.61090   0.00973
C    -0.67721   0.51877   2.37302
C     0.67638   0.11061   2.37434
C     1.42819   1.09615   1.69542
C     0.54451   2.11090   1.27923
C    -0.75519   1.75926   1.70216
O    -0.89081  -1.20538  -1.15406
N    -1.89960   1.12785  -0.84451
C    -2.07715   2.38851  -1.22694
C    -3.11804   2.77635  -2.05504
C    -4.01115   1.81047  -2.49453
C    -3.81698   0.49148  -2.11577
C    -2.73575   0.18827  -1.29862
C    -2.25983  -1.22065  -0.92816
C    -2.50016  -1.49572   0.56011
C    -1.58731  -2.32886   1.21407
C    -1.79900  -2.68222   2.53797
C    -2.90557  -2.19894   3.21968
C    -3.79931  -1.35530   2.57977
C    -3.60027  -1.00156   1.25420
C    -2.94571  -2.28514  -1.78120
C    -2.27566  -2.77096  -2.89534
C    -2.86834  -3.72433  -3.70368
C    -4.13557  -4.19592  -3.40674
C    -4.80557  -3.71479  -2.29437
C    -4.21492  -2.76326  -1.48097
H    -1.47365   0.07205   2.95387
H     1.08462  -0.74806   2.89507
H     2.50618   1.10349   1.58040
H     0.83587   3.04225   0.80927
H    -1.63379   2.39138   1.66170
H    -1.34728   3.10267  -0.86259
H    -3.22105   3.80695  -2.35388
H    -4.83642   2.07534  -3.13841
H    -4.47318  -0.29249  -2.46031
H    -0.74775  -2.74545   0.65756
H    -1.10247  -3.34185   3.03310
H    -3.07199  -2.47807   4.24907
H    -4.65770  -0.97305   3.11196
H    -4.30609  -0.34759   0.75889
H    -1.28396  -2.39612  -3.10452
H    -2.33861  -4.09929  -4.56627
H    -4.59977  -4.93986  -4.03679
H    -5.79230  -4.08330  -2.05537
H    -4.74172  -2.40163  -0.61000
O     0.71534   0.85733  -1.21482
