48

Cu    0.00000   0.00000   0.00000
P    -0.27755  -2.36765   0.86094
N    -0.17033  -1.73024  -0.60779
C    -0.98405  -2.10178  -1.68446
C    -0.62250  -1.67147  -2.96137
C    -1.37253  -2.04389  -4.05813
C    -2.49304  -2.84603  -3.90478
C    -2.86521  -3.26381  -2.63944
C    -2.11844  -2.89234  -1.53749
C    -0.18452  -4.18724   0.76288
C     1.02518  -4.69857   0.30458
C     1.17783  -6.05927   0.11576
C     0.12092  -6.91539   0.38036
C    -1.08713  -6.40854   0.83056
C    -1.24501  -5.04746   1.02042
C    -1.71240  -1.98152   1.91359
C    -1.96617  -2.68713   3.08705
C    -3.04598  -2.33644   3.87712
C    -3.87438  -1.29108   3.49966
C    -3.62852  -0.59382   2.32758
C    -2.54881  -0.93780   1.53480
C     1.21152  -1.83477   1.73817
C     2.34916  -1.54451   0.98484
C     3.49969  -1.11211   1.61249
C     3.52208  -0.95948   2.99147
C     2.39507  -1.24831   3.74001
C     1.23962  -1.69322   3.11939
H     0.24711  -1.03971  -3.06913
H    -1.08227  -1.70519  -5.04166
H    -3.07680  -3.13500  -4.76546
H    -3.74436  -3.87734  -2.50524
H    -2.41908  -3.18993  -0.53929
H     1.84161  -4.01920   0.09932
H     2.11896  -6.45279  -0.23840
H     0.23729  -7.97857   0.23269
H    -1.91251  -7.07562   1.03105
H    -2.19287  -4.65914   1.36757
H    -1.32050  -3.50655   3.37517
H    -3.23978  -2.87868   4.79104
H    -4.71322  -1.01937   4.12267
H    -4.27229   0.22091   2.03379
H    -2.33448  -0.38764   0.62176
H     2.30926  -1.63713  -0.09317
H     4.37706  -0.88014   1.02760
H     4.41729  -0.60463   3.47925
H     2.40851  -1.11857   4.81186
H     0.35770  -1.89975   3.70777
O     0.18204   1.46154   0.74382
