68

Nb    0.00000   0.00000   0.00000
Cl    2.04688  -1.11348  -0.07370
Cl   -1.07683  -1.08129  -1.66129
N     0.56247   1.54863   1.16523
N     0.51639   1.48427  -1.26529
C     1.03028   2.69007   0.58924
C     1.00619   2.65226  -0.76972
C     0.32368   1.63154   2.56590
C    -0.86078   2.23758   3.01341
C    -1.13727   2.21867   4.37314
C    -0.25325   1.65050   5.27154
C     0.93343   1.10581   4.82264
C     1.24308   1.09012   3.46893
C    -1.83065   2.87052   2.03646
C    -2.42262   4.17536   2.57476
C    -2.95364   1.88802   1.68294
C     2.54514   0.49427   2.98676
C     3.74066   1.21251   3.61665
C     2.58623  -1.00517   3.29108
C     0.25634   1.51276  -2.66607
C     1.22508   1.07320  -3.57231
C     0.93479   1.11374  -4.92983
C    -0.27729   1.59637  -5.38241
C    -1.22449   2.03731  -4.47799
C    -0.98000   2.00090  -3.11238
C     2.54651   0.52541  -3.08713
C     3.72914   1.25990  -3.72042
C     2.60890  -0.97586  -3.38213
C    -2.03653   2.47681  -2.13932
C    -3.34920   1.71444  -2.33252
C    -2.25193   3.98570  -2.27832
H     1.35790   3.52635   1.19181
H     1.31006   3.45496  -1.42766
H    -2.05565   2.65030   4.73846
H    -0.48923   1.63978   6.32529
H     1.62556   0.67971   5.53240
H    -1.28624   3.11501   1.11607
H    -2.94034   4.70098   1.77528
H    -3.13950   3.98753   3.36954
H    -1.63784   4.82206   2.95997
H    -3.69371   2.37749   1.05274
H    -2.55663   1.02236   1.14127
H    -3.44524   1.53403   2.58674
H     2.60937   0.62463   1.89967
H     4.66662   0.82008   3.20315
H     3.69501   2.27972   3.41043
H     3.76059   1.07132   4.69438
H     3.48869  -1.44612   2.87456
H     2.57315  -1.18569   4.36345
H     1.72375  -1.50052   2.84780
H     1.66701   0.76469  -5.64131
H    -0.48670   1.62666  -6.44136
H    -2.16863   2.41393  -4.84071
H     2.60691   0.66340  -2.00114
H     4.66034   0.89533  -3.29341
H     3.76273   1.10182  -4.79533
H     3.65798   2.32896  -3.53179
H     3.51302  -1.40491  -2.95732
H     1.74765  -1.47753  -2.94215
H     2.60413  -1.16053  -4.45400
H    -1.69053   2.27501  -1.11461
H    -4.07817   2.03123  -1.58936
H    -3.76887   1.89289  -3.31904
H    -3.17875   0.64566  -2.21754
H    -2.98502   4.32926  -1.55166
H    -1.32007   4.52056  -2.10813
H    -2.61307   4.23288  -3.27366
O    -0.64157  -0.79914   1.29316
