49

Pd    0.00000   0.00000   0.00000
Cl    1.58971  -1.62063   0.36113
N    -0.38176   0.25396   1.99024
C    -1.07054  -0.93588   2.49229
C     0.76675   0.65441   2.81701
C     1.57471   1.71289   2.05852
C     0.31459   1.16859   4.16603
C     0.76544   0.56986   5.33475
C     0.35107   1.03605   6.57038
C    -0.52324   2.10586   6.65015
C    -0.97888   2.70875   5.48976
C    -0.56281   2.24380   4.25539
H    -1.05268   1.03292   1.97306
H    -1.41760  -0.79171   3.52256
H    -1.93334  -1.14974   1.85080
H    -0.38537  -1.78718   2.46585
H     1.39521  -0.23447   2.95575
H     2.01340   1.25977   1.15898
H     0.93622   2.55003   1.77196
H     2.37978   2.08848   2.68551
H     1.44653  -0.26700   5.27554
H     0.70951   0.56085   7.47138
H    -0.84910   2.46933   7.61318
H    -1.66051   3.54432   5.54569
H    -0.92420   2.72867   3.35908
N     0.25396  -0.38180  -1.99021
C    -0.93587  -1.07058  -2.49223
C     0.65444   0.76668  -2.81702
H     1.03292  -1.05273  -1.97300
H    -0.79172  -1.41764  -3.52251
H    -1.14972  -1.93338  -1.85075
H    -1.78717  -0.38542  -2.46577
C     1.71286   1.57470  -2.05851
C     1.16871   0.31446  -4.16598
H    -0.23444   1.39512  -2.95583
H     1.25967   2.01342  -1.15901
H     2.55000   0.93626  -1.77187
H     2.08845   2.37976  -2.68551
C     0.57000   0.76521  -5.33476
C     2.24396  -0.56289  -4.25524
C     1.03626   0.35078  -6.57034
H    -0.26688   1.44628  -5.27563
C     2.70898  -0.97902  -5.48956
H     2.72881  -0.92420  -3.35889
C     2.10611  -0.52349  -6.65000
H     0.56110   0.70915  -7.47138
H     3.54459  -1.66062  -5.54541
H     2.46964  -0.84939  -7.61299
O    -1.16332   1.14106  -0.25920
