33

Pt    0.00000   0.00000   0.00000
Cl   -0.81357  -1.34615   1.61040
N     0.81771   1.13056  -1.64659
N    -1.01355  -1.06290  -1.58085
C     0.52689   0.35814  -2.85895
C    -0.88168  -0.23042  -2.78118
C     2.23388   1.51116  -1.46628
C     2.76913   2.33851  -2.63379
C     3.09180   0.27727  -1.20555
C    -2.39345  -1.46956  -1.24423
C    -3.22190  -0.25994  -0.82382
C    -3.06303  -2.25176  -2.37299
H     0.26774   1.99122  -1.66374
H    -0.46477  -1.91499  -1.70886
H     0.61052   0.97356  -3.76389
H     1.25187  -0.45639  -2.92624
H    -1.60690   0.58378  -2.71268
H    -1.08451  -0.80085  -3.69668
H     2.24957   2.12080  -0.55616
H     3.75151   2.72502  -2.37848
H     2.11770   3.18558  -2.84223
H     2.86888   1.73939  -3.53674
H     4.05251   0.58328  -0.80299
H     3.27146  -0.29938  -2.11044
H     2.59936  -0.35154  -0.45945
H    -2.29139  -2.11893  -0.36783
H    -4.12232  -0.59618  -0.31892
H    -3.51767   0.35269  -1.67277
H    -2.64524   0.34255  -0.11749
H    -4.00169  -2.66491  -2.01506
H    -2.43453  -3.07813  -2.70076
H    -3.28172  -1.61411  -3.22736
O     0.73895   0.93942   1.13751
