68

Fe    0.00000   0.00000   0.00000
P    -0.74999   2.03834  -0.47389
Cl    0.01031   0.35026   2.13973
P     0.31860  -2.14606   0.41531
O    -2.35710   1.65315  -0.69706
O    -1.26095  -2.61404   0.62440
N    -1.81409  -0.46998  -0.00306
C    -2.76680   0.42896  -0.31858
C    -4.51665  -1.14108   0.07574
H    -5.56195  -1.39828   0.11379
C    -2.21703  -1.70875   0.34448
C     1.09415  -3.01404   1.89828
C     0.43148   3.72837   1.33032
H     0.78076   2.82703   1.82843
H     0.38446   4.52985   2.06559
H     1.15833   4.00095   0.56856
C     0.93808   3.40447  -2.23262
H     0.85567   4.37554  -1.75144
H     1.26989   3.56502  -3.25788
H     1.69783   2.81919  -1.71587
C     2.17684  -2.97958  -1.49686
H     2.52635  -1.95461  -1.37482
H     2.37829  -3.29216  -2.52103
H     2.75082  -3.62027  -0.83227
C    -4.11794   0.13358  -0.29734
H    -4.82480   0.90144  -0.56135
C     2.41136  -2.27620   2.13785
H     3.05953  -2.33409   1.26527
H     2.93625  -2.70515   2.98952
H     2.21873  -1.22605   2.34624
C     1.34483  -4.50621   1.69526
H     0.42169  -5.02470   1.44838
H     1.72585  -4.92404   2.62695
H     2.08714  -4.69275   0.92449
C    -0.39070   2.65471  -2.22940
C     0.68164  -3.06558  -1.20706
C    -0.94989   3.49076   0.72223
C    -1.48828   4.77088   0.08830
H    -0.77514   5.21627  -0.59937
H    -1.67952   5.49667   0.87864
H    -2.42657   4.58224  -0.42805
C    -3.54816  -2.08055   0.39622
H    -3.79835  -3.08603   0.68824
C    -0.06764  -2.21293  -2.23870
H    -1.14705  -2.27143  -2.09142
H     0.15350  -2.55177  -3.25015
H     0.24797  -1.16967  -2.15563
C     0.16743  -2.84565   3.10404
H    -0.08003  -1.80046   3.26581
H     0.66866  -3.21824   3.99583
H    -0.75360  -3.40859   2.96624
C    -1.50940   3.47256  -2.87308
H    -2.48178   3.03160  -2.66548
H    -1.36677   3.48269  -3.95352
H    -1.51142   4.50208  -2.53378
C    -0.21397   1.35900  -3.02889
H     0.65875   0.81926  -2.66181
H    -0.04838   1.58010  -4.08249
H    -1.10175   0.72785  -2.95282
C     0.15969  -4.49814  -1.29658
H     0.83444  -5.20910  -0.83261
H     0.05703  -4.77693  -2.34540
H    -0.81903  -4.58419  -0.82799
C    -1.93343   3.05407   1.81191
H    -2.94083   2.95552   1.41079
H    -1.95250   3.80339   2.60138
H    -1.63455   2.10798   2.25536
O     1.58578   0.34366  -0.29951
