42

Cu    0.00000   0.00000   0.00000
N    -1.43567  -1.22570  -0.50451
C    -2.28821  -1.64592   0.41335
C    -1.91809  -1.47883   1.85144
H    -0.83452  -1.48535   1.96958
H    -2.35506  -2.26918   2.45791
H    -2.29289  -0.52287   2.22022
C    -3.51825  -2.23461   0.07147
H    -4.17968  -2.55811   0.86041
C    -3.85867  -2.38685  -1.24402
H    -4.79920  -2.83377  -1.53139
C    -2.96203  -1.95324  -2.24228
C    -3.23368  -2.07238  -3.61868
H    -4.17049  -2.51662  -3.92264
C    -2.33278  -1.62619  -4.54608
H    -2.54806  -1.71252  -5.60043
C    -1.12466  -1.04828  -4.13299
H    -0.42498  -0.69139  -4.87317
C    -0.82939  -0.92556  -2.80207
H     0.09429  -0.46669  -2.48357
C    -1.73909  -1.36602  -1.82414
N     1.50661  -0.54499   1.11552
C     2.42207  -1.36263   0.62626
C     2.10569  -2.10211  -0.63294
H     2.63806  -3.04981  -0.67091
H     1.03326  -2.28256  -0.70953
H     2.41041  -1.50711  -1.49523
C     3.66715  -1.54411   1.25311
H     4.38078  -2.22241   0.81134
C     3.95604  -0.86479   2.40420
H     4.90584  -0.98753   2.90389
C     2.99367   0.01104   2.94758
C     3.21016   0.74997   4.12642
H     4.15528   0.63910   4.63812
C     2.24637   1.59486   4.60402
H     2.41911   2.16519   5.50423
C     1.02878   1.73091   3.92343
H     0.27957   2.40851   4.30338
C     0.78611   1.01954   2.77947
H    -0.14530   1.13566   2.24619
C     1.75976   0.14816   2.25923
O    -0.07021   1.55896  -0.53593
