53

C    -1.51956  -0.86681  -0.74197
N    -2.83505  -0.59530  -0.57527
C    -3.59870  -1.37387  -1.40570
H    -4.66537  -1.29482  -1.43570
C    -2.74347  -2.16010  -2.09776
H    -2.92106  -2.91060  -2.83995
N    -1.48052  -1.83801  -1.67663
Cu    0.00000   0.00000   0.00000
C    -3.35914   0.40699   0.29281
H    -2.57712   0.72225   0.98495
H    -4.23146   0.03563   0.83263
S    -3.95790   1.86366  -0.65352
C    -2.40234   2.52236  -1.23168
C    -1.42329   2.91531  -0.33292
H    -1.58711   2.82654   0.73067
C    -0.23488   3.44046  -0.80920
H     0.53775   3.72417  -0.11254
C    -0.03910   3.59026  -2.17183
H     0.88822   4.00446  -2.53767
C    -1.02993   3.21169  -3.06292
H    -0.88506   3.33851  -4.12616
C    -2.21333   2.66762  -2.59671
H    -2.99326   2.36490  -3.27950
C    -0.29450  -2.47902  -2.13396
C     0.45957  -1.88340  -3.14494
C     1.59514  -2.55067  -3.58751
H     2.19603  -2.11748  -4.37144
C     1.97221  -3.75585  -3.03010
H     2.86187  -4.25648  -3.38161
C     1.22412  -4.31770  -2.01261
H     1.54379  -5.24816  -1.57229
C     0.07421  -3.69468  -1.54978
C     0.08738  -0.54692  -3.74020
H    -0.81889  -0.17011  -3.25470
C     1.20347   0.46669  -3.48065
H     1.36151   0.58666  -2.40993
H     0.93090   1.43347  -3.89495
H     2.13813   0.14659  -3.93293
C    -0.19963  -0.67970  -5.23779
H     0.68838  -0.99596  -5.77850
H    -0.52195   0.27804  -5.63934
H    -0.98692  -1.41031  -5.41377
C    -0.71056  -4.26897  -0.39337
H    -1.72480  -3.85663  -0.40833
C    -0.83502  -5.79155  -0.45670
H    -1.19048  -6.10804  -1.43512
H    -1.54367  -6.13229   0.29478
H     0.11735  -6.27556  -0.25925
C    -0.03876  -3.83226   0.91286
H     0.97235  -4.22826   0.96751
H    -0.60275  -4.19646   1.76841
H     0.01746  -2.74490   0.96687
O     1.32522   0.80710   0.56116
