33

Pt    0.00000   0.00000   0.00000
Cl   -1.21537  -0.75483   1.81030
O    -3.85344   4.67304  -0.60674
N    -1.25775   1.48559  -0.21793
C    -2.54741   1.25654  -0.46109
H    -2.84893   0.21784  -0.52983
C    -3.47883   2.26466  -0.60875
H    -4.50564   2.00386  -0.80437
C    -3.06397   3.59273  -0.49450
C    -1.70538   3.82240  -0.24008
H    -1.35075   4.83546  -0.14887
C    -0.84933   2.75485  -0.11314
H     0.20737   2.90864   0.07010
C    -5.23008   4.48892  -0.86033
H    -5.65572   5.48951  -0.90608
H    -5.71113   3.92580  -0.05556
H    -5.39464   3.98032  -1.81442
O     3.84423  -4.68136   0.60024
N     1.25689  -1.48640   0.21749
C     2.54722  -1.26102   0.46044
H     2.85151  -0.22323   0.53070
C     3.47610  -2.27185   0.60623
H     4.50373  -2.01420   0.80185
C     3.05776  -3.59866   0.49009
C     1.69848  -3.82443   0.23584
H     1.34108  -4.83638   0.14318
C     0.84520  -2.75450   0.11090
H    -0.21200  -2.90520  -0.07209
C     5.22143  -4.50189   0.85401
H     5.64378  -5.50391   0.89828
H     5.70427  -3.93924   0.05005
H     5.38764  -3.99520   1.80884
O     0.86844   0.53832  -1.29558
