56

Cu    0.00000   0.00000   0.00000
P    -0.61997   0.12528   2.17998
C    -1.05314   1.67528   3.03196
C    -0.15888   2.73821   2.90672
C    -0.44281   3.96249   3.47928
C    -1.63222   4.14342   4.16794
C    -2.53364   3.09752   4.27755
C    -2.25204   1.86772   3.70956
C     0.67510  -0.59585   3.22959
C     1.05543  -1.89794   2.90062
C     2.08865  -2.51117   3.58100
C     2.75800  -1.82763   4.58546
C     2.38800  -0.53263   4.90794
C     1.35179   0.08867   4.23210
C    -2.04032  -0.95315   2.52797
C    -3.01256  -1.05448   1.53775
C    -4.11316  -1.86906   1.72490
C    -4.24507  -2.58689   2.90206
C    -3.27920  -2.48775   3.89121
C    -2.17566  -1.67501   3.70963
N    -0.57115   1.56937  -1.11092
C     0.40459   2.47950  -1.26011
C     0.33037   3.46843  -2.24041
C    -0.77049   3.50456  -3.07354
C    -1.76778   2.54687  -2.91557
C    -1.61742   1.59819  -1.92341
N     1.69934   1.07613   0.13005
C     1.53958   2.31857  -0.35821
C     2.39465   3.35729   0.01005
C     3.43482   3.09294   0.87970
C     3.59914   1.79653   1.36226
C     2.70369   0.82588   0.96005
H     0.76570   2.59497   2.36154
H     0.25993   4.77823   3.38557
H    -1.85712   5.10085   4.61401
H    -3.46327   3.24002   4.80913
H    -2.95940   1.05485   3.79535
H     0.53609  -2.41972   2.10713
H     2.37664  -3.51959   3.32400
H     3.56894  -2.30443   5.11606
H     2.90816  -0.00065   5.69182
H     1.06652   1.09910   4.49119
H    -2.88650  -0.50022   0.61655
H    -4.85963  -1.95521   0.94973
H    -5.09920  -3.23145   3.04743
H    -3.38370  -3.05104   4.80715
H    -1.41768  -1.60230   4.47777
H     1.13634   4.17513  -2.36094
H    -0.84911   4.25697  -3.84375
H    -2.63829   2.53833  -3.55113
H    -2.35913   0.82623  -1.76879
H     2.22820   4.35538  -0.36381
H     4.10906   3.88013   1.18207
H     4.40699   1.54812   2.03139
H     2.78900  -0.19647   1.30426
O    -0.24111  -1.48960  -0.66743
