52

Ni    0.00000   0.00000   0.00000
S     1.79623  -1.31448  -0.21566
S    -0.48797  -1.69545   1.43291
C     0.95280  -2.34833   0.80423
N     1.28829  -3.60030   1.16411
H     0.62085  -4.03556   1.79408
C     2.35410  -4.42855   0.80970
C     3.39503  -4.04652  -0.03108
H     3.42524  -3.05870  -0.45855
C     4.40493  -4.94495  -0.32513
H     5.20538  -4.63646  -0.98018
C     4.39691  -6.22173   0.20782
H     5.18932  -6.91519  -0.02782
C     3.36299  -6.60402   1.04751
H     3.34451  -7.59716   1.47063
C     2.34947  -5.71710   1.34721
H     1.54278  -6.01815   2.00193
P    -1.78063   1.16673   0.42233
C    -2.83491   0.49404   1.74951
C    -3.67532  -0.56693   1.41978
H    -3.71118  -0.91456   0.39473
C    -4.45331  -1.16533   2.39108
H    -5.10568  -1.98590   2.13038
C    -4.38912  -0.71671   3.70134
H    -4.99394  -1.18684   4.46266
C    -3.54401   0.32787   4.03575
H    -3.48908   0.67308   5.05794
C    -2.76166   0.93090   3.06607
H    -2.09709   1.74185   3.33010
C    -1.15105   2.71544   1.14483
C    -1.81494   3.93327   1.11231
H    -2.76405   4.02212   0.60500
C    -1.24051   5.03854   1.71712
H    -1.75219   5.98916   1.68728
C    -0.01344   4.93357   2.35021
H     0.42859   5.80186   2.81556
C     0.65825   3.72075   2.37460
H     1.62262   3.64277   2.85365
C     0.09123   2.61752   1.76938
H     0.61813   1.65687   1.75486
C    -3.03695   1.65235  -0.80071
C    -4.26167   2.15034  -0.35869
H    -4.46168   2.23086   0.70134
C    -5.22426   2.52673  -1.27579
H    -6.17059   2.91610  -0.92939
C    -4.97899   2.40112  -2.63458
H    -5.73557   2.69468  -3.34702
C    -3.76918   1.89322  -3.07537
H    -3.57718   1.78785  -4.13225
C    -2.79887   1.51659  -2.16277
H    -1.85444   1.12299  -2.50902
O     0.52045   1.11385  -1.10044
