23

Mn    0.00000   0.00000   0.00000
N     1.28879   0.67594   1.47439
C    -1.05393  -0.81557  -1.18933
O    -1.73635  -1.32263  -1.95944
C    -0.22305   1.52947  -0.88628
O    -0.38396   2.50208  -1.48027
C    -1.39592   0.35411   1.03986
O    -2.31876   0.61161   1.67251
O     0.47425  -1.85798   1.16041
H     0.53204  -2.66032   0.62168
C     1.53058   1.96159   1.74473
H     1.01001   2.69006   1.13561
C     2.39872   2.37520   2.73644
H     2.56038   3.42760   2.90227
C     3.04865   1.41746   3.50071
H     3.73256   1.70124   4.28515
C     2.79886   0.08562   3.22913
H     3.28185  -0.69865   3.79046
C     1.91894  -0.24752   2.20642
C     1.69737  -1.69574   1.85733
H     2.54695  -2.01641   1.23464
H     1.67860  -2.30577   2.77238
O     1.33764  -0.40498  -0.87705
