32

Pt    0.00000   0.00000   0.00000
Cl   -1.49642  -1.66814  -0.27611
N     1.37803   1.44595   0.22855
N     1.49719  -1.32042   0.23296
C     2.58621   1.35204  -0.34858
C     3.53053   2.35124  -0.14742
H     4.50161   2.29515  -0.60665
C     3.22836   3.44871   0.64354
H     3.96081   4.22688   0.79285
C     1.97649   3.52279   1.22972
H     1.69350   4.35494   1.85293
C     1.08236   2.49724   0.99509
H     0.08444   2.51521   1.41193
C     2.69725  -1.11680  -0.33285
C     3.73207  -2.01597  -0.10643
H     4.69982  -1.86941  -0.55254
C     3.52751  -3.12923   0.69370
H     4.33082  -3.82946   0.86312
C     2.27983  -3.32099   1.26194
H     2.06998  -4.17176   1.88892
C     1.29393  -2.38909   1.00554
H     0.29648  -2.50001   1.40910
C     2.87488   0.12261  -1.21235
C     4.28181   0.18145  -1.81914
H     4.44702  -0.69523  -2.44064
H     5.05958   0.22659  -1.06093
H     4.36546   1.05510  -2.46087
C     1.89829   0.07144  -2.40741
H     2.02776   0.95989  -3.02057
H     0.84831   0.02521  -2.08903
H     2.10869  -0.80793  -3.01117
O    -1.19297   1.12187  -0.20177
