39

Zn    0.00000   0.00000   0.00000
Br   -0.51222   1.24911   1.95092
Cl   -1.63942   0.75315  -4.27757
Cl    3.23268   2.02112  -6.15318
O    -0.30258   0.53028  -1.76343
N     2.05949   0.55719  -0.11023
N     3.25093  -0.86386   3.10854
C     1.92241   1.06223  -2.48100
C     0.52357   0.84114  -2.67770
C     0.04241   1.01377  -4.01508
C     0.85022   1.36108  -5.06247
H     0.44093   1.47288  -6.05378
C     2.21333   1.57382  -4.82876
C     2.73450   1.43549  -3.57294
H     3.78795   1.60483  -3.40599
C     2.56628   0.96996  -1.21666
H     3.61118   1.30721  -1.21227
C     2.86644   0.62134   1.08562
H     2.29767   1.20397   1.81729
H     3.81623   1.13946   0.88776
C     3.11439  -0.79376   1.62851
H     4.01972  -1.20741   1.17885
H     2.27585  -1.43593   1.34263
C     4.28762   0.06594   3.62326
H     3.83842   1.05389   3.73086
H     5.08890   0.12688   2.88421
C     4.86300  -0.41442   4.94566
H     4.10398  -0.47657   5.72042
H     5.62376   0.28407   5.28193
H     5.32954  -1.39129   4.83410
C     1.94378  -0.73449   3.82546
H     1.28355  -0.06182   3.27517
H     2.13044  -0.29166   4.80304
C     1.28226  -2.08941   3.98850
H     1.06457  -2.55170   3.02871
H     0.33424  -1.95099   4.49854
H     1.89543  -2.76334   4.58450
H     3.57052  -1.81852   3.31010
O     0.11689  -1.62549   0.25808
