32

Zn    0.00000   0.00000   0.00000
Cl   -0.54466  -0.11389   2.15370
N     1.27340  -1.77039  -0.03919
N    -0.15753  -0.83345  -2.00516
N    -1.87825   0.74223  -0.76603
C     1.89455  -2.28427   1.00435
H     1.56095  -1.92847   1.96977
C     2.91109  -3.22157   0.87720
H     3.40090  -3.61708   1.75227
C     3.27762  -3.62407  -0.39604
H     4.06599  -4.34798  -0.54036
C     2.61979  -3.08343  -1.48987
H     2.88806  -3.38915  -2.48812
C     1.61051  -2.14856  -1.27355
C     0.86825  -1.48642  -2.36351
C     1.40271  -1.60286  -3.75699
H     1.33270  -2.63417  -4.10059
H     2.44938  -1.30513  -3.76761
H     0.85424  -0.96801  -4.44586
C    -0.96152  -0.03292  -2.87127
H    -1.41957  -0.63150  -3.66893
H    -0.34088   0.74636  -3.33675
C    -2.03789   0.66549  -2.07962
C    -3.13624   1.23498  -2.71416
H    -3.24244   1.15970  -3.78581
C    -4.08045   1.89909  -1.95063
H    -4.94045   2.35378  -2.41942
C    -3.90329   1.96665  -0.57679
H    -4.61610   2.47233   0.05412
C    -2.78282   1.36889  -0.02694
H    -2.59197   1.37910   1.03720
O     1.07117   1.08560  -0.62973
