40

Zn    0.00000   0.00000   0.00000
Br    0.28948  -1.41716   1.95605
N    -1.29146  -1.23426  -1.06803
N    -2.91771  -1.25685   1.80341
H    -1.86480  -1.14966   1.88055
H    -3.10553  -2.19786   2.16202
O     1.24971   0.22117  -1.31432
O     3.02784   0.65433  -5.56741
C    -0.02210  -0.76532  -3.09757
C     1.09272  -0.03804  -2.56139
C     2.08096   0.40071  -3.46361
H     2.92442   0.94313  -3.06646
C     2.00595   0.17066  -4.82081
C     0.90546  -0.53569  -5.34386
H     0.81825  -0.72932  -6.40051
C    -0.06204  -0.98353  -4.49091
H    -0.90422  -1.52984  -4.89474
C    -1.07629  -1.32407  -2.34026
H    -1.78457  -1.92343  -2.92770
C    -2.39513  -1.99927  -0.52811
H    -1.98052  -2.83806   0.04621
H    -2.99318  -2.42012  -1.34859
C    -3.31632  -1.17276   0.38170
H    -3.28188  -0.12224   0.08496
H    -4.34020  -1.53482   0.28286
C    -3.54039  -0.26268   2.72699
H    -3.32112   0.72859   2.31929
C    -2.87098  -0.41740   4.08300
H    -3.08546  -1.39056   4.51865
H    -3.23385   0.34931   4.75901
H    -1.79428  -0.30614   3.99525
C    -5.04189  -0.48518   2.80970
H    -5.52983  -0.28836   1.85998
H    -5.46216   0.19645   3.54217
H    -5.26797  -1.50195   3.12665
C     3.01510   0.45129  -6.96034
H     3.02817  -0.61388  -7.21245
H     3.92532   0.91887  -7.33264
H     2.14791   0.92694  -7.42927
O    -0.97415   1.25206   0.45375
