50

Cu    0.00000   0.00000   0.00000
N    -2.40969  -0.22721   1.67272
C    -1.58006  -0.02206   0.87681
C    -3.35400  -0.49939   2.60266
C    -3.90007  -1.78021   2.67715
C    -4.85712  -2.05015   3.63229
C    -5.28584  -1.06727   4.52050
C    -4.72991   0.20411   4.43034
C    -3.77066   0.49742   3.48206
C    -6.33666  -1.37871   5.53968
N     1.93709   2.12723   0.62525
C     1.07690   1.44254   0.23037
C     2.99667   2.74518   1.20299
C     3.27577   4.07769   0.91652
C     4.35970   4.68441   1.52098
C     5.17085   3.98475   2.40666
C     4.87444   2.65095   2.67876
C     3.79852   2.02387   2.08824
C     6.34528   4.63940   3.06445
N     0.56647  -1.98143  -2.10140
C     0.23432  -1.07952  -1.43704
C     1.05734  -3.10304  -2.68397
C     0.78391  -3.37882  -4.01990
C     1.29698  -4.52786  -4.58981
C     2.07890  -5.40727  -3.85009
C     2.33957  -5.11304  -2.51353
C     1.83874  -3.97304  -1.92263
C     2.63753  -6.65241  -4.46506
H    -3.56144  -2.54534   1.99492
H    -5.27852  -3.04281   3.69491
H    -5.04964   0.97612   5.11505
H    -3.33586   1.48381   3.41768
H    -6.36203  -0.62116   6.31875
H    -6.15317  -2.34931   5.99599
H    -7.31775  -1.41412   5.06489
H     2.64659   4.62337   0.22876
H     4.57750   5.71934   1.29996
H     5.49798   2.09726   3.36505
H     3.56701   0.99062   2.29906
H     6.44081   5.67688   2.75477
H     7.26362   4.11255   2.80814
H     6.23752   4.60681   4.14793
H     0.17668  -2.69675  -4.59668
H     1.08541  -4.74350  -5.62716
H     2.94481  -5.78972  -1.92854
H     2.03892  -3.74456  -0.88657
H     2.28031  -7.53110  -3.92942
H     3.72513  -6.64824  -4.40411
H     2.34743  -6.73886  -5.50898
O     0.84543  -0.97182   1.03117
