68

Mo    0.00000   0.00000   0.00000
O    -1.19621  -0.67676  -0.88357
O     1.28169   0.61086   1.13536
N     1.10759  -2.00237   2.00738
N     0.73227  -1.87032   0.72207
N    -0.49766  -0.57798   2.92920
N    -1.08315  -0.08555   1.81651
N    -0.46015   1.88818  -0.54535
C     2.19594  -3.64998   3.54701
H     3.02107  -3.00095   3.84245
H     2.56734  -4.66741   3.46742
H     1.43473  -3.62149   4.32793
C     1.64450  -3.22902   2.23412
C     1.58374  -3.90177   1.03297
H     1.91940  -4.90029   0.84161
C     1.00709  -3.01455   0.11075
C     0.71550  -3.19661  -1.33008
H    -0.19880  -2.65456  -1.57799
H     0.61382  -4.25015  -1.57654
H     1.51929  -2.76097  -1.92458
C    -1.11414  -1.52205   5.17874
H    -0.67594  -2.51206   5.04239
H    -2.02994  -1.63066   5.75285
H    -0.41603  -0.91796   5.75900
C    -1.43614  -0.90280   3.86690
C    -2.65405  -0.55742   3.32774
H    -3.61221  -0.65798   3.79509
C    -2.39177  -0.05184   2.04502
C    -3.33517   0.45445   1.01970
H    -3.07550   0.00653   0.05919
H    -3.24407   1.53663   0.92180
H    -4.35830   0.20383   1.28472
C     0.90447  -0.89802   2.91381
H     1.22315  -1.19791   3.91573
C     1.77197   0.30018   2.36524
C     1.76072   1.54638   3.24657
C     2.55045   2.60500   2.80298
H     3.13592   2.47681   1.90345
C     2.58384   3.79940   3.49579
H     3.20060   4.61008   3.13762
C     1.82998   3.95360   4.64796
H     1.85464   4.88492   5.19379
C     1.04437   2.90746   5.09457
H     0.45165   3.01910   5.99091
C     1.00628   1.70948   4.39775
H     0.37799   0.91518   4.76718
C     3.20435  -0.24533   2.31327
C     3.91156  -0.44723   3.49297
H     3.46916  -0.17093   4.44146
C     5.18647  -0.98217   3.45347
H     5.73306  -1.13463   4.37305
C     5.75967  -1.32011   2.23797
H     6.75408  -1.74059   2.21050
C     5.05961  -1.10896   1.06310
H     5.50346  -1.36036   0.11205
C     3.78380  -0.57158   1.09612
H     3.24138  -0.39404   0.17508
C    -1.29012   2.11354  -1.59171
H    -1.70222   1.21877  -2.04404
C    -1.59319   3.36186  -2.08095
H    -2.26325   3.45135  -2.92197
C    -1.02620   4.49184  -1.49870
H    -1.23972   5.48329  -1.86390
C    -0.16336   4.27926  -0.43142
H     0.31884   5.10710   0.06627
C     0.08458   2.99680   0.00393
H     0.75157   2.82788   0.84068
O     1.12712   0.06417  -1.20332
