61

C    -0.28968  -2.70379   2.50808
C     0.79001  -3.54479   2.24662
H     1.69342  -3.13349   1.81226
C     0.70215  -4.89535   2.52271
H     1.54318  -5.54345   2.32423
C    -0.47097  -5.41918   3.04308
H    -0.54160  -6.47546   3.25618
C    -1.55843  -4.59240   3.27165
H    -2.47908  -5.00541   3.65698
C    -1.47561  -3.23863   2.99906
H    -2.33047  -2.59728   3.16017
C    -1.47774  -0.07481   2.86644
C    -2.25478   0.79416   2.10228
H    -2.07339   0.88447   1.01979
C    -3.26138   1.52991   2.70323
H    -3.86455   2.20320   2.11226
C    -3.49641   1.40120   4.06245
H    -4.28223   1.97538   4.53058
C    -2.72637   0.53661   4.82493
H    -2.91311   0.43816   5.88440
C    -1.71738  -0.19938   4.23202
H    -1.11578  -0.87627   4.82435
C     1.36910  -0.32615   2.91652
H     1.16596  -0.20375   3.98520
H     2.18696  -1.04948   2.80393
C     1.69803   0.97324   2.24580
C     2.48033   2.04505   2.62133
H     3.01309   2.15424   3.54678
C     2.44701   2.96760   1.55761
H     2.95155   3.91416   1.51587
C     1.64353   2.42133   0.57872
C     1.20645   2.91876  -0.76634
H     2.02989   3.38911  -1.31379
H     0.38486   3.64255  -0.67244
C    -0.29115   2.01138  -3.14352
C    -1.11115   1.08547  -3.78418
H    -1.23128   0.09981  -3.35203
C    -1.77355   1.43863  -4.94492
H    -2.41041   0.72146  -5.44078
C    -1.62328   2.71346  -5.46759
H    -2.14037   2.99042  -6.37456
C    -0.81673   3.63867  -4.82509
H    -0.70670   4.63402  -5.23101
C    -0.15053   3.29377  -3.66242
H     0.47103   4.02233  -3.16124
C     2.08869   0.68523  -2.33892
C     2.50305  -0.55053  -1.84554
H     1.89642  -1.07146  -1.08752
C     3.66582  -1.12940  -2.32274
H     3.98809  -2.08753  -1.94217
C     4.41505  -0.48290  -3.29233
H     5.32229  -0.93593  -3.66382
C     3.99911   0.74064  -3.79302
H     4.58076   1.23849  -4.55497
C     2.83819   1.32441  -3.32097
H     2.50525   2.27364  -3.71858
N     1.19535   1.21360   1.00689
P     0.56963   1.43018  -1.65617
P    -0.12752  -0.96271   2.03338
Pd    0.00000   0.00000   0.00000
O    -0.98553  -1.04128  -0.81669
