49

Cr    0.00000   0.00000   0.00000
Cl    1.71986   0.99845  -0.94644
N     0.98844   0.07464   1.74688
C     1.05477   1.06788   2.64720
C     1.87651   1.04355   3.74371
C     2.70331  -0.06979   3.96822
C     2.67034  -1.09416   3.06779
C     1.81307  -0.99299   1.95089
N     1.76116  -1.95476   1.03837
N     0.98754  -1.65467   0.04361
C     0.80290  -2.68995  -0.86937
C     0.69178  -2.41137  -2.23167
C     0.45697  -3.43608  -3.12774
C     0.33786  -4.74332  -2.68250
C     0.48836  -5.02888  -1.33459
C     0.72775  -4.01431  -0.42954
N    -0.95494   0.12041  -1.76262
C    -0.72273   0.93444  -2.80428
C    -1.53591   1.00808  -3.90494
C    -2.68032   0.19670  -3.97929
C    -2.95409  -0.63582  -2.93374
C    -2.08211  -0.64606  -1.82375
N    -2.31752  -1.42447  -0.77529
N    -1.46458  -1.23972   0.18191
C    -1.59769  -2.12765   1.24645
C    -1.95873  -3.45786   1.01609
C    -2.03318  -4.34464   2.07154
C    -1.76753  -3.91895   3.36354
C    -1.45360  -2.58980   3.60067
C    -1.37113  -1.69369   2.55271
H     0.83582  -1.39870  -2.58122
H     0.37316  -3.21344  -4.18100
H     0.14335  -5.53830  -3.38643
H     0.41650  -6.04838  -0.98632
H     0.84834  -4.21680   0.62365
H    -2.16272  -3.77036   0.00341
H    -2.29809  -5.37468   1.88511
H    -1.81969  -4.61673   4.18558
H    -1.27818  -2.24678   4.60940
H    -1.17673  -0.64687   2.73943
H     0.40117   1.91061   2.46456
H     1.88051   1.87772   4.42610
H     3.34946  -0.10384   4.83159
H     3.27940  -1.97794   3.15568
H     0.17010   1.54169  -2.73470
H    -1.28991   1.68622  -4.70565
H    -3.32472   0.24071  -4.84350
H    -3.81556  -1.28129  -2.90240
O    -0.96427   1.21840   0.55515
