48

Pd    0.00000   0.00000   0.00000
Cl   -1.34930  -0.81148   1.69761
P    -1.89315  -0.79608  -0.82554
C    -1.92624  -0.86152  -2.71976
C    -2.87586  -1.99432  -2.96712
C    -2.68822  -2.96921  -2.06949
C    -1.58383  -2.60364  -1.11690
C    -0.26325  -2.49425  -1.92019
C    -0.48214  -1.37720  -2.96714
C    -3.86078  -1.99721  -4.08817
N     0.46266  -0.27827  -2.87776
C    -3.40601  -4.27525  -2.01243
C     1.04883   0.32971  -3.95872
C     1.72550   1.40554  -3.49293
N     1.54270   1.43647  -2.13533
C     0.77230   0.40491  -1.75620
C     2.05218   2.43533  -1.22651
C     0.99948   3.49058  -0.88616
Cl   -0.30298   2.79432   0.13411
C    -3.63176  -0.54735  -0.42068
C    -4.23218   0.63782  -0.83006
C    -5.56273   0.87112  -0.53574
C    -6.28940  -0.07482   0.16945
C    -5.68518  -1.24914   0.59000
C    -4.35415  -1.48788   0.30217
H    -2.13859   0.04916  -3.28134
H    -1.48403  -3.23764  -0.23588
H     0.56685  -2.23682  -1.24226
H    -0.03050  -3.44331  -2.40467
H    -0.39401  -1.77602  -3.98388
H    -3.77838  -1.09030  -4.68140
H    -4.87621  -2.06360  -3.69739
H    -3.70125  -2.85736  -4.73871
H    -3.05542  -4.87449  -1.17663
H    -3.25332  -4.83881  -2.93335
H    -4.47796  -4.11254  -1.90059
H     0.94634  -0.04715  -4.95579
H     2.31938   2.13063  -4.01007
H     2.91445   2.92200  -1.68724
H     2.36186   1.91791  -0.30341
H     0.52604   3.89166  -1.78264
H     1.45636   4.29312  -0.31084
H    -3.64558   1.37183  -1.36865
H    -6.03301   1.79132  -0.85027
H    -7.32842   0.10848   0.40076
H    -6.25308  -1.97730   1.15038
H    -3.86528  -2.38740   0.64564
O     1.44198   0.10215   0.79546
