66

Zn    0.00000   0.00000   0.00000
N     0.98624   2.36544  -1.12092
N     1.44246   1.16718  -0.69041
N    -1.10245   2.54038   0.37481
N    -0.94428   1.38302   1.05638
O    -1.20077   0.06100  -1.65132
O    -1.32434   2.25324  -2.12283
C    -1.57035   1.02231  -2.30353
C     1.99725   3.04542  -1.70210
C     3.13045   2.25749  -1.62246
C     2.74238   1.08499  -0.97558
C    -1.90397   3.36753   1.07900
C    -2.24923   2.71761   2.24936
C    -1.62217   1.47323   2.20103
C     1.86387   4.38295  -2.35918
C     3.22349   5.05983  -2.52714
C     1.17893   4.21443  -3.72018
C    -2.36369   4.71363   0.61503
C    -3.43767   4.54126  -0.46510
C    -2.90461   5.54858   1.77483
C     3.59491  -0.10681  -0.63766
C     3.43937  -0.45219   0.84711
C     5.06847   0.20519  -0.92097
C     3.16017  -1.29333  -1.50649
C    -1.66993   0.37712   3.22947
C    -2.49620  -0.79018   2.67591
C    -0.24807  -0.08968   3.55841
C    -2.33087   0.89160   4.51312
B    -0.46195   2.84447  -0.98287
H    -2.21539   0.84856  -3.18862
H     4.10555   2.50283  -1.98369
H    -2.87017   3.09727   3.03153
H     1.23794   5.02250  -1.73063
H     3.08632   6.06668  -2.91420
H     3.84514   4.50942  -3.22847
H     3.74220   5.12453  -1.57392
H     1.07017   5.18097  -4.20622
H     0.19472   3.77070  -3.59770
H     1.77575   3.56909  -4.36134
H    -1.51276   5.24402   0.17822
H    -3.77508   5.51386  -0.81503
H    -4.29210   4.00313  -0.05997
H    -3.04187   3.98325  -1.30912
H    -3.14137   6.55079   1.42569
H    -2.16822   5.62578   2.57086
H    -3.81247   5.10723   2.17777
H     3.69460   0.40551   1.46640
H     4.09887  -1.27689   1.10570
H     2.41932  -0.75443   1.07010
H     5.40002   1.06581  -0.34447
H     5.22883   0.40521  -1.97754
H     5.68061  -0.64929  -0.64248
H     3.77815  -2.16028  -1.28648
H     3.26469  -1.04979  -2.56221
H     2.12370  -1.55533  -1.31081
H    -3.50555  -0.46120   2.43567
H    -2.55591  -1.58553   3.41467
H    -2.03851  -1.19399   1.77674
H     0.35782   0.74697   3.90081
H     0.22636  -0.53235   2.68626
H    -0.27833  -0.84170   4.34296
H    -3.36406   1.17777   4.33254
H    -1.79146   1.74875   4.90979
H    -2.32495   0.10584   5.26476
H    -0.50426   4.00538  -1.17656
O     0.07918  -1.61802   0.31345
