40

V     0.00000   0.00000   0.00000
Cl   -0.96682  -1.48647   0.96183
Cl   -0.77919   1.71339   0.77519
O    -0.12739   0.09353  -1.49517
O     0.86254  -2.43973  -1.47911
O     2.73852  -0.02146  -2.32972
O     0.61437   2.01858  -3.22054
O    -2.24837   1.16316  -2.52828
O    -2.10933  -1.67144  -1.71690
C     1.92048  -2.26474  -2.40462
H     1.89345  -3.07275  -3.14800
H     2.84302  -2.34729  -1.81802
C     1.97385  -0.90982  -3.12557
H     2.47367  -1.03898  -4.10075
H     0.97101  -0.50256  -3.27759
C     2.88286   1.27542  -2.85702
H     2.94833   1.23974  -3.95277
H     3.82729   1.65149  -2.45064
C     1.77190   2.25165  -2.45219
H     1.55208   2.11216  -1.37925
H     2.12650   3.28382  -2.61476
C    -0.49748   2.78519  -2.81236
H    -0.38437   3.82272  -3.16636
H    -0.58605   2.78282  -1.71711
C    -1.76572   2.16656  -3.39494
H    -2.53600   2.94200  -3.52964
H    -1.51579   1.74243  -4.37690
C    -2.97509   0.15226  -3.17804
H    -2.42156  -0.21078  -4.05775
H    -3.94849   0.53856  -3.52744
C    -3.24449  -1.00694  -2.21087
H    -3.73875  -0.61174  -1.32013
H    -3.91069  -1.72463  -2.72015
C    -1.33694  -2.36681  -2.67309
H    -0.86434  -1.67639  -3.38021
H    -1.98344  -3.06869  -3.22821
C    -0.25556  -3.16965  -1.93382
H    -0.71303  -3.59020  -1.03250
H     0.07927  -3.99102  -2.58519
O     1.57796  -0.05554   0.47901
