51

Pt    0.00000   0.00000   0.00000
P    -2.09632  -0.14511  -0.84417
Cl    0.67773   1.24732  -1.79587
C    -2.38165  -1.06124  -2.37934
P    -0.73743  -1.22281   1.75357
C    -1.93589  -0.43882  -3.54522
H    -1.47155   0.53561  -3.47386
C    -2.06841  -1.07584  -4.76326
H    -1.72309  -0.59168  -5.66425
C    -2.63741  -2.33889  -4.82694
H    -2.74100  -2.83794  -5.77896
C    -3.06359  -2.96693  -3.66889
H    -3.49710  -3.95532  -3.71808
C    -2.93242  -2.33593  -2.44370
H    -3.26109  -2.84127  -1.54682
C    -2.95953   1.42276  -1.12222
C    -4.17369   1.48471  -1.79804
H    -4.60883   0.58352  -2.20838
C    -4.80796   2.70369  -1.95220
H    -5.74912   2.75714  -2.47957
C    -4.23572   3.85662  -1.43685
H    -4.73410   4.80609  -1.56505
C    -3.02406   3.79616  -0.76743
H    -2.57506   4.69696  -0.37698
C    -2.38545   2.57985  -0.60860
H    -1.42289   2.51214  -0.11163
C    -3.14965  -0.94666   0.46539
H    -3.45148  -0.13999   1.14193
H    -4.05668  -1.37076   0.02572
C    -2.34401  -1.99083   1.23511
H    -2.09954  -2.83501   0.58378
H    -2.90070  -2.36477   2.09947
C    -1.14790  -0.26353   3.29029
H    -2.16780  -0.52461   3.60153
C    -0.14724  -0.78874   4.32388
H     0.82833  -0.33692   4.13486
H    -0.45836  -0.53522   5.33820
C    -0.04940  -2.29647   4.11878
H    -1.00152  -2.77058   4.37232
H     0.72648  -2.73681   4.74566
C     0.26418  -2.50656   2.63507
H     1.30253  -2.20258   2.44723
C    -1.04429   1.23741   3.04918
H    -1.13293   1.78612   3.98528
H    -1.83182   1.57490   2.37553
H    -0.07798   1.47125   2.59929
C     0.06052  -3.92758   2.13079
H     0.76131  -4.59939   2.62276
H     0.23960  -3.97691   1.05803
H    -0.94884  -4.27899   2.33782
O     1.48388   0.07424   0.71769
