30

Ru    0.00000   0.00000   0.00000
Br   -1.36824   1.98811  -0.68437
S     1.50729  -1.66519   0.70479
S    -0.19249   0.65823   2.25184
S     1.90805   1.45135  -0.08558
C     3.04915  -1.10543  -0.11398
C     3.36750   0.35009   0.15133
C     1.88521   2.37613   1.50933
C     0.53025   2.34164   2.18222
C     1.16463  -0.20075   3.04836
C     1.47062   0.12085   4.36409
C     2.50980  -0.52327   5.00949
C     3.23190  -1.50919   4.35276
C     2.91440  -1.85007   3.05110
C     1.88803  -1.18790   2.39052
C    -1.50154  -1.08994  -0.01341
O    -2.42826  -1.75228  -0.04036
H     2.85632  -1.28300  -1.17524
H     3.86005  -1.74999   0.22577
H     3.73463   0.49601   1.16843
H     4.12162   0.69443  -0.55782
H     2.14578   3.40640   1.26355
H     2.65668   1.95168   2.15341
H     0.59179   2.72039   3.20253
H    -0.20873   2.91720   1.61870
H     0.88809   0.87239   4.87490
H     2.74779  -0.26477   6.02937
H     4.03421  -2.02229   4.85941
H     3.45534  -2.63214   2.54035
O     0.33154  -0.37742  -1.57167
