49

Ni    0.00000   0.00000   0.00000
O     4.79171   1.35513   1.61586
N     4.98744   1.43733  -0.62863
N    -0.71576  -1.40300   1.39737
C     1.01210   1.12684  -1.21286
C     1.71943   1.00907   0.00585
C     1.96068  -0.27814   0.45518
C     1.97404   2.21713   0.87107
C     3.30775   2.80939   0.49173
C     4.43107   1.81306   0.54480
C     3.50077   4.09922   0.27236
C     6.05801   0.45564  -0.59144
C     5.52243  -0.97209  -0.65376
C     4.53200   1.87242  -1.93050
C     5.44844   2.92041  -2.55884
C    -1.56392  -0.79281   2.43054
C    -0.94173   0.51560   2.89799
C    -1.34756  -2.56739   0.76190
C    -0.50693  -3.02562  -0.42190
H     0.13232  -1.73741   1.86402
H     1.20740   0.41113  -2.01798
H     0.72235   2.11354  -1.56224
H     2.40174  -0.43210   1.43281
H     2.13384  -1.08180  -0.25909
H     2.03148   1.92113   1.92341
H     1.18838   2.96809   0.75458
H     4.47722   4.50005   0.06057
H     2.69167   4.81002   0.31983
H     6.73505   0.64580  -1.42629
H     6.59866   0.59718   0.34722
H     4.89390  -1.16374   0.21188
H     4.93777  -1.13051  -1.55826
H     6.34772  -1.67873  -0.64720
H     3.52581   2.28481  -1.83188
H     4.47993   0.99643  -2.58591
H     6.45551   2.53230  -2.68865
H     5.49918   3.80535  -1.93122
H     5.06141   3.20659  -3.53306
H    -2.54121  -0.58774   1.98552
H    -1.70460  -1.48130   3.27542
H    -0.00436   0.34253   3.42479
H    -0.75054   1.15126   2.02119
H    -1.61965   1.04786   3.55877
H    -2.33409  -2.26104   0.40461
H    -1.47850  -3.38372   1.48563
H    -0.31063  -2.15923  -1.07234
H     0.44136  -3.44953  -0.09459
H    -1.03985  -3.77051  -1.00542
O    -1.45687   0.41116  -0.65650
