68

Pd    0.00000   0.00000   0.00000
Cl   -1.25222   1.73826   0.83296
P     1.31046  -1.65378  -0.70116
P    -0.72562  -2.70290   1.09285
O    -1.32882  -2.97090  -1.07061
C     3.09689  -1.57012  -0.42746
C     0.87509  -3.15998   0.30889
H     1.62692  -3.30619   1.09201
H     0.77018  -4.05489  -0.30398
C    -1.79452  -4.12216   1.41335
C    -0.12378  -2.20919   2.74604
C    -2.43271  -1.11235  -2.04679
C     0.09701  -3.21651   3.68361
H    -0.17332  -4.23652   3.44076
C     1.04671  -2.04621  -2.44426
C    -1.60915  -1.30319   0.40592
H    -2.31372  -0.71136   0.98715
C    -1.81263  -1.81151  -0.91198
C     1.28045  -3.28561  -3.02767
H     1.68794  -4.09737  -2.44058
C     0.53579  -0.99657  -3.20642
H     0.37359  -0.02378  -2.73460
C     4.04911  -1.86716  -1.39193
H     3.74115  -2.18602  -2.37794
C     0.64814  -2.91895   4.91566
H     0.80752  -3.70611   5.63772
C     0.24672  -1.19280  -4.54424
H    -0.15316  -0.38289  -5.13624
C    -2.43741   0.28150  -2.15007
H    -2.01332   0.90090  -1.35803
C    -3.48540   0.10424  -4.30713
C     3.48704  -1.11861   0.83214
H     2.72359  -0.84048   1.55541
C     0.98494  -3.47407  -4.36558
H     1.15825  -4.43752  -4.82256
C     0.23917  -0.89929   3.05321
H     0.08351  -0.07806   2.34000
C     5.78100  -1.30101   0.17280
H     6.83035  -1.19080   0.40259
C    -2.95476  -1.88775  -3.08410
H    -2.92945  -2.96285  -2.98937
C     0.46401  -2.43432  -5.12008
H     0.22842  -2.59320  -6.16191
C    -1.66323  -5.35377   0.78918
H    -0.86990  -5.51768   0.07624
C     0.99818  -1.61273   5.21967
H     1.43046  -1.38002   6.18121
C    -2.96152   0.88566  -3.27478
H    -2.96174   1.96169  -3.36515
C     5.39268  -1.73447  -1.08337
H     6.13832  -1.96044  -1.83137
C    -2.56822  -6.36115   1.07423
H    -2.46969  -7.32242   0.59207
C     0.79509  -0.60807   4.28846
H     1.06937   0.41033   4.51908
C     4.82789  -0.98900   1.13162
H     5.13392  -0.63115   2.10330
C    -2.83700  -3.89446   2.30726
H    -2.92491  -2.92462   2.78113
C    -3.60159  -6.13891   1.97000
H    -4.30569  -6.92845   2.18566
C    -3.48262  -1.28864  -4.20661
H    -3.88763  -1.88428  -5.01131
N    -4.43216   1.20953  -6.41364
C    -4.00955   0.71958  -5.46744
C    -3.73846  -4.90411   2.58551
H    -4.54781  -4.73008   3.27853
O     1.24559   1.03066  -0.32980
