66

Pt    0.00000   0.00000   0.00000
O    -0.41708   0.79727  -6.00784
H     0.19329   0.86893  -6.74609
O    -0.27959  -1.45624  -6.54785
H    -0.44847  -2.37683  -6.32678
O     2.62368   1.34221  -6.46790
O     3.40538   3.17013  -5.41837
O    -0.04927  -4.26546  -5.51124
O     0.06002  -5.91502  -3.99677
N     0.33271  -1.76423  -1.27905
N     1.12136   0.77760  -1.74303
C    -1.81420   0.61500  -0.91913
H    -2.63548   0.55596  -0.20515
H    -1.66078   1.65501  -1.21804
C    -2.05213  -0.24304  -2.08877
C    -1.53434   0.08123  -3.34580
H    -1.04381   1.03414  -3.49070
C    -1.61384  -0.78492  -4.43433
C    -2.31565  -1.97791  -4.26707
H    -2.40650  -2.66623  -5.09603
C    -2.91316  -2.28400  -3.05469
H    -3.48031  -3.19876  -2.94931
C    -2.76680  -1.44081  -1.97222
H    -3.20835  -1.70261  -1.02077
C    -0.03184  -3.00572  -0.99137
H    -0.32951  -3.19047   0.03156
C    -0.06599  -4.01974  -1.92846
H    -0.41376  -5.00604  -1.67096
C     0.30876  -3.71000  -3.23446
C     0.80741  -2.44501  -3.50358
H     1.13767  -2.22116  -4.50303
C     0.80652  -1.47927  -2.49952
C     1.28118  -0.11010  -2.73681
C     1.54070   2.02363  -1.90901
H     1.40400   2.69186  -1.06957
C     2.10975   2.48558  -3.07967
H     2.41123   3.51434  -3.18366
C     2.26258   1.58446  -4.13077
C     2.77638   1.99872  -5.46744
C     3.90302   3.69417  -6.65212
H     4.28562   2.86715  -7.25889
H     4.72132   4.35829  -6.36725
C     2.81831   4.44719  -7.40822
H     2.01416   3.76873  -7.68283
H     3.23898   4.87773  -8.31209
H     2.41170   5.24460  -6.79079
C     1.87024   0.26818  -3.94346
H     2.01248  -0.42641  -4.75345
C     0.10229  -4.64611  -4.37177
C    -0.17296  -6.88131  -5.02746
H     0.63073  -6.80372  -5.76783
H    -1.11852  -6.64071  -5.52605
C    -0.21171  -8.25713  -4.39202
H     0.73053  -8.46583  -3.89274
H    -0.38101  -9.00674  -5.15919
H    -1.01304  -8.31122  -3.66005
C    -0.09102   1.67131   1.20585
H    -1.05895   2.17302   1.22044
H     0.66489   2.37733   0.85084
H     0.17401   1.40043   2.22979
C    -1.07273  -0.94914   1.48260
H    -0.36935  -1.48423   2.12512
H    -1.74985  -1.67033   1.01720
H    -1.66913  -0.28800   2.11117
B    -0.77294  -0.48306  -5.74532
O     1.47464  -0.38908   0.62972
