66

Pt    0.00000   0.00000   0.00000
O    -1.96770  -6.78251   1.27492
O    -0.98511  -6.90120  -0.73881
O     0.95133  -2.09457  -6.82496
O    -0.02416  -3.88693  -5.88035
O     2.66532  -7.05494  -0.86701
H     3.09142  -6.52189  -1.53566
O     1.58229  -7.09621   1.18970
H     1.63120  -8.04446   1.06197
N    -0.82436  -2.04905   0.10491
N     0.41528  -0.85705  -2.00181
C    -1.41722  -2.59778   1.15499
H    -1.69597  -1.92444   1.95344
C    -1.67717  -3.95133   1.25002
H    -2.15511  -4.37797   2.11666
C    -1.27182  -4.77528   0.20349
C    -1.45383  -6.25028   0.32457
C    -1.06400  -8.32875  -0.70017
H    -0.81299  -8.66255   0.31238
H    -2.09831  -8.62513  -0.91025
C    -0.10589  -8.89187  -1.73346
H    -0.40508  -8.58154  -2.73125
H    -0.11409  -9.97689  -1.68473
H     0.90180  -8.53048  -1.54421
C    -0.70069  -4.19428  -0.91838
H    -0.38904  -4.82237  -1.73483
C    -0.51061  -2.81385  -0.94962
C     0.00716  -2.12746  -2.14142
C     0.82887  -0.18663  -3.06826
H     1.13102   0.83882  -2.90508
C     0.87822  -0.73412  -4.33465
H     1.22452  -0.16764  -5.18377
C     0.45621  -2.05200  -4.50028
C     0.00567  -2.74965  -3.38961
H    -0.35765  -3.75568  -3.50988
C     0.49837  -2.65911  -5.86173
C    -0.03992  -4.56242  -7.14049
H    -0.83992  -5.30023  -7.05382
H    -0.28145  -3.83890  -7.92556
C     1.29665  -5.22854  -7.43255
H     2.07534  -4.47549  -7.52609
H     1.22940  -5.78041  -8.36538
H     1.56080  -5.91555  -6.63184
C     0.72248   1.91864  -0.22779
H    -0.12287   2.60631  -0.28982
H     1.28470   1.97991  -1.16336
H     1.37832   2.25100   0.57707
C     1.92636  -0.52448   0.71328
H     2.64525  -0.01468   0.06793
H     2.05316  -0.18599   1.74131
C     2.05879  -1.98163   0.60363
C     1.67044  -2.82896   1.64895
H     1.32127  -2.39291   2.57479
C     1.71405  -4.19779   1.51012
H     1.39496  -4.83521   2.32097
C     2.15893  -4.80394   0.33039
C     2.59519  -3.95658  -0.69013
H     2.97142  -4.37594  -1.61644
C     2.54992  -2.58355  -0.56030
H     2.90612  -1.95836  -1.36923
C    -0.59266   0.57477   1.88778
H    -0.20839   1.53860   2.21951
H    -0.28670  -0.17959   2.61692
H    -1.68376   0.63540   1.87261
B     2.14856  -6.37413   0.20007
O    -1.43967   0.38558  -0.70794
