53

Pt    0.00000   0.00000   0.00000
N     3.06280  -0.90321   0.84390
O     2.52752  -2.87453   1.63980
O     2.30406  -4.42209  -2.86883
O     2.68144  -2.75952  -1.31884
C    -1.72425   1.00283  -0.48955
H    -1.81255   1.28364  -1.53992
H    -1.79808   1.91527   0.10727
H    -2.57335   0.36598  -0.22592
N    -0.86054  -1.99647   0.74997
N     5.16993  -3.45140   2.26956
C     1.02874   1.71450  -0.46898
H     0.78085   2.14333  -1.43904
H     2.08531   1.43975  -0.45317
H     0.84304   2.45848   0.30750
N     1.75490  -1.07176   0.69191
C     1.44237  -2.24974   1.17032
C     0.10718  -2.78663   1.23339
C    -2.11057  -2.41654   0.83771
H    -2.86831  -1.74686   0.45663
C    -2.45942  -3.63858   1.38991
H    -3.49554  -3.93209   1.43730
C    -1.45728  -4.46655   1.87397
H    -1.69384  -5.42635   2.30735
C    -0.14724  -4.03206   1.80296
H     0.67337  -4.62218   2.17858
C     4.89134  -2.24830   1.77497
C     6.41584  -3.70519   2.61538
H     6.59339  -4.69516   3.01388
C     7.44789  -2.78409   2.48811
H     8.45109  -3.04159   2.78906
C     7.15458  -1.53175   1.96794
H     7.92903  -0.78791   1.85357
C     5.85119  -1.24947   1.60021
H     5.55675  -0.29586   1.19470
C     0.29578  -0.68521  -1.97637
H    -0.07956   0.03960  -2.69922
H     1.37119  -0.81000  -2.10169
C    -0.42328  -1.96519  -2.08507
C     0.22100  -3.21857  -2.00258
C    -0.57244  -4.36966  -2.01036
H    -0.08832  -5.33474  -1.91756
C    -1.94793  -4.32225  -2.12159
H    -2.52789  -5.23334  -2.10488
C    -2.56655  -3.09344  -2.29470
H    -3.63635  -3.04010  -2.43787
C    -1.81092  -1.94145  -2.28427
H    -2.29490  -0.98603  -2.42087
C     3.51407  -1.98693   1.40974
B     1.78624  -3.45563  -2.05883
H     3.58738  -3.01242  -1.50794
H     1.67844  -4.91093  -3.40111
O    -0.20592   0.38907   1.59019
