43

Pt    0.00000   0.00000   0.00000
N     1.84490   0.07882   0.97196
H     1.66801   0.01129   1.98124
H     2.40939  -0.73457   0.70284
C     2.61583   1.30895   0.71812
H     2.95818   1.28274  -0.32278
C     1.71664   2.53012   0.90907
H     1.34825   2.55751   1.93734
H     0.85089   2.45357   0.23521
C     2.49385   3.80676   0.61052
H     2.81337   3.80142  -0.43392
H     1.84787   4.67316   0.75969
C     3.71741   3.90576   1.51683
H     3.39337   3.97421   2.55782
H     4.28027   4.81033   1.28180
C     4.61200   2.68190   1.34318
H     5.47278   2.74946   2.01055
H     4.98526   2.64713   0.31731
C     3.83284   1.40259   1.63874
H     4.47980   0.53280   1.49599
H     3.50113   1.41312   2.68105
I     1.21295  -0.30053  -2.30996
N    -1.84430  -0.08200  -0.97285
H    -1.66734  -0.01453  -1.98212
H    -2.40880   0.73142  -0.70383
C    -2.61545  -1.31197  -0.71883
H    -2.95779  -1.28568   0.32207
C    -1.71632  -2.53315  -0.90975
H    -1.34794  -2.56046  -1.93803
H    -0.85057  -2.45652  -0.23586
C    -2.49347  -3.80982  -0.61125
H    -2.81296  -3.80456   0.43320
H    -1.84747  -4.67619  -0.76053
C    -3.71706  -3.90875  -1.51754
H    -3.39308  -3.97713  -2.55855
H    -4.27989  -4.81335  -1.28254
C    -4.61169  -2.68493  -1.34378
H    -5.47251  -2.75249  -2.01110
H    -4.98489  -2.65023  -0.31788
C    -3.83255  -1.40561  -1.63934
H    -4.47950  -0.53583  -1.49653
H    -3.50089  -1.41611  -2.68166
O    -0.76245   0.18667   1.45132
