43

Pt    0.00000   0.00000   0.00000
N    -1.34300   0.68832   1.39816
H    -1.00220   1.61946   1.66685
H    -2.26697   0.79601   0.96903
C    -1.45126  -0.15382   2.60102
H    -1.86467  -1.11960   2.28826
C    -2.37075   0.48175   3.64489
H    -3.37106   0.62478   3.22789
H    -1.97596   1.46208   3.92610
C    -0.05806  -0.37455   3.18755
H     0.38266   0.59058   3.44780
H     0.57659  -0.84428   2.42578
C    -1.05822  -0.63110   5.46957
H    -0.64181   0.32525   5.79378
H    -1.12622  -1.27985   6.34433
C    -0.13706  -1.25857   4.42732
H    -0.52198  -2.24088   4.14638
H     0.86086  -1.39577   4.84612
C    -2.44919  -0.40618   4.88459
H    -3.09835   0.05778   5.62935
H    -2.88708  -1.36822   4.61048
Cl    1.24306   1.91893   0.37520
N     1.34301  -0.68843  -1.39814
H     1.00241  -1.61963  -1.66687
H     2.26691  -0.79596  -0.96881
C     1.45142   0.15370  -2.60097
H     1.86415   1.11970  -2.28799
C     2.37176  -0.48136  -3.64442
H     3.37192  -0.62394  -3.22691
H     1.97762  -1.46184  -3.92601
C     0.05838   0.37361  -3.18818
H    -0.38162  -0.59175  -3.44889
H    -0.57699   0.84280  -2.42668
C     1.05967   0.63120  -5.46959
H     0.64396  -0.32528  -5.79431
H     1.12783   1.28023  -6.34414
C     0.13755   1.25793  -4.42773
H     0.52171   2.24041  -4.14638
H    -0.86022   1.39461  -4.84705
C     2.45043   0.40687  -4.88389
H     3.10025  -0.05659  -5.62838
H     2.88768   1.36908  -4.60933
O    -0.88486  -1.36677  -0.26734
