69

Pd    0.00000   0.00000   0.00000
I    -0.99302  -1.89029   1.52266
N    -2.58436   0.09445  -1.45139
N    -2.47739   1.76169  -0.05595
N     2.42506  -1.79171  -0.00683
N     2.62848  -0.15468   1.41295
C    -1.82483   0.66717  -0.49717
C     1.82268  -0.68453   0.47287
C    -3.73699   0.82440  -1.63757
C    -3.67087   1.89787  -0.73151
C    -4.69086   2.83371  -0.65828
H    -4.65741   3.66028   0.03410
C    -5.76215   2.67168  -1.51525
H    -6.57422   3.38169  -1.48350
C    -5.81697   1.61884  -2.42603
H    -6.66760   1.53738  -3.08507
C    -4.80764   0.67912  -2.50557
H    -4.85153  -0.12741  -3.22004
C    -2.22234  -1.11251  -2.15671
H    -1.17854  -1.35281  -1.87863
H    -2.26141  -0.92161  -3.23525
C    -3.11880  -2.29644  -1.79085
H    -4.14455  -2.09589  -2.10451
H    -3.11983  -2.42262  -0.70675
C    -2.61412  -3.57366  -2.44753
H    -2.58429  -3.46717  -3.53032
H    -3.26666  -4.40605  -2.19974
H    -1.61256  -3.81131  -2.09526
C    -1.94963   2.69383   0.91638
H    -2.69628   3.47408   1.07410
H    -1.04458   3.15982   0.50307
C    -1.61850   2.00867   2.24389
H    -1.14796   2.74174   2.90268
H    -0.88885   1.20051   2.05579
C    -2.85565   1.42241   2.91025
H    -3.31499   0.66761   2.27491
H    -3.59002   2.20057   3.11032
H    -2.58860   0.94722   3.85040
C     3.63328  -1.97928   0.62785
C     3.76120  -0.92603   1.55092
C     4.86136  -0.83325   2.38871
H     4.95408  -0.04181   3.11527
C     5.83475  -1.80539   2.26283
H     6.70616  -1.76551   2.89813
C     5.71787  -2.83851   1.33542
H     6.50363  -3.57511   1.26756
C     4.61808  -2.94714   0.50665
H     4.53631  -3.75734  -0.20091
C     1.84598  -2.66508  -1.00274
H     0.86759  -3.01175  -0.64069
H     2.49808  -3.53359  -1.11100
C     1.67859  -1.95658  -2.34992
H     1.02778  -1.07777  -2.21238
H     1.18167  -2.64088  -3.04104
C     3.01201  -1.50419  -2.92922
H     2.86055  -1.02121  -3.89081
H     3.67899  -2.35302  -3.06848
H     3.49646  -0.78768  -2.26876
C     2.33225   1.05378   2.14501
H     2.40171   0.84815   3.21909
H     1.28988   1.33244   1.90621
C     3.25391   2.21229   1.76064
H     4.28101   1.98170   2.04849
H     3.23139   2.34218   0.67721
C     2.80078   3.50113   2.43214
H     3.46864   4.31658   2.16941
H     2.79509   3.39287   3.51506
H     1.79758   3.76537   2.10486
O     0.62564   1.21243  -0.92795
