43

Pd    0.00000   0.00000   0.00000
Cl   -1.62740  -1.44581  -0.50929
S     0.83636  -0.43359  -2.29306
S     1.61558   1.70823   0.72478
P     2.68041  -0.26772  -1.65349
P     2.34358  -0.04183   1.27524
N     3.02237  -0.82397  -0.07419
C     3.80934  -1.51304  -2.40852
H     3.43235  -1.80942  -3.38721
H     4.81361  -1.09973  -2.52177
C     3.77388  -2.65216  -1.39232
H     2.80986  -3.16248  -1.46042
H     4.56885  -3.37840  -1.55975
C     3.89756  -1.99240  -0.02186
H     3.58017  -2.65926   0.78446
H     4.93496  -1.68719   0.16322
C     3.45299   1.36654  -1.83381
C     4.74488   1.59008  -1.37324
H     5.29358   0.79304  -0.88905
C     5.31251   2.84034  -1.52737
H     6.31380   3.02500  -1.16697
C     4.59633   3.85693  -2.14104
H     5.04311   4.83325  -2.25313
C     3.31120   3.62781  -2.60500
H     2.75543   4.42274  -3.07802
C     2.73557   2.37964  -2.45435
H     1.72637   2.18377  -2.79299
C     1.43261  -1.34412   2.18918
C     0.84015  -2.39926   1.49039
H     0.98216  -2.50715   0.41325
C     0.06908  -3.31904   2.17687
H    -0.40505  -4.12373   1.63660
C    -0.11980  -3.18549   3.54474
H    -0.74340  -3.89192   4.07117
C     0.47186  -2.14076   4.23387
H     0.31252  -2.03140   5.29583
C     1.24710  -1.21341   3.55899
H     1.67818  -0.37428   4.08559
C     3.81523   0.30430   2.31654
H     4.29862  -0.61173   2.64995
H     3.49855   0.88563   3.17999
H     4.50696   0.91115   1.73284
O    -0.83920   0.31924   1.38431
