57

Pt    0.00000   0.00000   0.00000
Cl    1.42654   1.33817  -1.10259
N    -0.46016  -0.33923   5.13976
N    -1.03590  -0.61530   7.36812
N     1.07212  -1.10275   6.80311
N    -0.52869  -2.88793   4.25878
N    -2.39022  -3.19443   5.72094
N    -0.39807  -4.05834   6.25531
N     0.82716   0.27752   1.79635
N    -1.12681  -1.26034   1.06310
C     0.40033   0.01649   4.14455
C     1.39992   0.97020   4.39584
H     1.57010   1.28513   5.41536
C     2.10406   1.52957   3.35114
H     2.87998   2.25664   3.53029
C     1.76443   1.18315   2.05559
H     2.23687   1.63962   1.19673
C     0.19241  -0.36965   2.80062
C    -0.73275  -1.39992   2.34987
C    -2.03662  -2.07407   0.53791
H    -2.31189  -1.88173  -0.48990
C    -2.58816  -3.11507   1.26313
H    -3.33569  -3.74950   0.81430
C    -2.12761  -3.35348   2.54023
H    -2.46332  -4.21245   3.10333
C    -1.16246  -2.50948   3.11321
C    -0.12535  -0.64182   6.33802
C    -0.35136  -0.85389   8.62389
H    -0.95041  -1.49549   9.27542
H    -0.16834   0.09433   9.15041
C     0.95964  -1.50961   8.18664
H     1.81904  -1.15822   8.76440
H     0.90846  -2.60361   8.26296
C    -2.11454   0.33967   7.35748
H    -1.81844   1.28580   7.82633
H    -2.96911  -0.06436   7.90162
H    -2.39123   0.52908   6.32396
C     2.10760  -1.65364   5.96702
H     1.68274  -1.96900   5.01403
H     2.54902  -2.51727   6.46244
H     2.89178  -0.91415   5.78025
C    -1.10012  -3.35402   5.30549
C    -2.56590  -3.72063   7.05672
H    -3.49176  -4.29848   7.12617
H    -2.60556  -2.90449   7.78984
C    -1.31792  -4.58525   7.24463
H    -0.89359  -4.50478   8.24887
H    -1.53218  -5.64571   7.04706
C    -3.28471  -2.18559   5.21421
H    -2.71019  -1.38197   4.75339
H    -3.87023  -1.77760   6.03684
H    -3.96659  -2.60777   4.47028
C     0.72095  -4.87897   5.86805
H     0.40206  -5.89378   5.60133
H     1.43222  -4.94449   6.69234
H     1.19679  -4.42014   5.00567
O    -0.81297  -0.21858  -1.41909
