61

Pt    0.00000   0.00000   0.00000
Cl   -0.33822   1.61292  -1.52750
N    -0.95371  -4.96284   0.99564
N    -1.94483  -6.99658   1.29881
N     0.21789  -6.70219   2.09910
N     0.15442  -1.52021   1.28710
C    -0.39423  -3.84522   1.52940
C    -0.36967  -3.66617   2.92308
H    -0.66196  -4.49112   3.55801
C    -0.04146  -2.44058   3.46159
H    -0.00347  -2.29450   4.52943
C     0.18414  -1.37587   2.60803
H     0.37618  -0.37725   2.97528
C    -0.04370  -2.73491   0.72694
C    -0.87877  -6.15921   1.47426
C    -3.25198  -6.43757   1.04666
H    -3.24751  -5.38543   1.31681
H    -3.98765  -6.96820   1.65626
H    -3.54194  -6.52705  -0.00333
C    -1.80047  -8.38154   0.92258
H    -0.75798  -8.67972   0.97206
H    -2.15847  -8.52941  -0.10227
H    -2.39151  -9.02402   1.58141
C     0.07426  -7.62672   3.20186
H    -0.96983  -7.88733   3.34894
H     0.44738  -7.16408   4.12201
H     0.65220  -8.53845   3.02461
C     1.49212  -6.02585   2.06031
H     1.56504  -5.44332   1.14342
H     2.28003  -6.78213   2.07771
H     1.63720  -5.36107   2.91997
N     0.95621  -4.96284  -0.99535
N     1.94681  -6.99688  -1.29847
N    -0.21578  -6.70189  -2.09886
N    -0.15258  -1.52032  -1.28710
C     0.39684  -3.84519  -1.52920
C     0.37265  -3.66619  -2.92289
H     0.66524  -4.49112  -3.55772
C     0.04427  -2.44071  -3.46153
H     0.00662  -2.29466  -4.52939
C    -0.18197  -1.37605  -2.60805
H    -0.37431  -0.37755  -2.97546
C     0.04589  -2.73494  -0.72685
C     0.88099  -6.15920  -1.47396
C     3.25412  -6.43827  -1.04632
H     3.24994  -5.38610  -1.31639
H     3.98963  -6.96905  -1.65600
H     3.54409  -6.52791   0.00364
C     1.80201  -8.38181  -0.92233
H     0.75942  -8.67963  -0.97174
H     2.16006  -8.52987   0.10247
H     2.39277  -9.02447  -1.58126
C    -0.07232  -7.62636  -3.20171
H     0.97170  -7.88726  -3.34872
H    -0.44523  -7.16351  -4.12184
H    -0.65055  -8.53793  -3.02459
C    -1.48986  -6.02525  -2.06008
H    -1.56271  -5.44283  -1.14312
H    -2.27793  -6.78136  -2.07763
H    -1.63471  -5.36035  -2.91967
O     0.24670   1.18427   1.12211
