63

Br   -1.95794   1.35375  -0.48855
Ni    0.00000   0.00000   0.00000
S    -1.02853  -1.55356   1.18737
S     1.53984   1.46403  -0.65990
N     0.29345   1.00905   2.09738
C    -1.27863  -0.73397   2.80928
H    -2.30125  -0.91974   3.12995
H    -0.58730  -1.24452   3.48223
C    -0.98823   0.75954   2.76821
H    -1.77498   1.26467   2.20142
H    -1.00142   1.15668   3.79417
C     1.40396   0.51138   2.87847
C     1.68761   1.00584   4.14596
H     1.07713   1.78405   4.58287
C     2.75982   0.50110   4.85883
H     2.97452   0.88900   5.84378
C     3.55467  -0.49511   4.31588
H     4.38960  -0.88464   4.87844
C     3.27570  -0.98748   3.05310
H     3.88870  -1.76273   2.61995
C     2.20355  -0.48432   2.33806
H     1.98505  -0.86967   1.34782
C     0.47573   2.42432   1.75329
H     0.66061   3.04361   2.64419
H    -0.44147   2.78307   1.27785
C     1.64054   2.58498   0.78748
H     2.58231   2.32146   1.27258
H     1.69671   3.60793   0.42157
C     0.87223   2.55019  -1.98519
H     0.01038   3.06563  -1.55455
C     0.42783   1.66402  -3.14415
H    -0.24723   0.88500  -2.77610
H    -0.13411   2.28332  -3.84762
C     1.61062   1.00966  -3.84889
H     2.10037   0.31333  -3.16572
H     1.24595   0.43178  -4.69882
C     2.61523   2.05668  -4.31387
H     3.46126   1.56859  -4.79989
H     2.14489   2.72133  -5.04297
C     3.10253   2.87397  -3.12248
H     3.82009   3.62997  -3.44786
H     3.60806   2.21247  -2.41490
C     1.92606   3.55543  -2.43032
H     2.28375   4.14446  -1.58115
H     1.44593   4.24810  -3.12688
C    -2.73169  -1.80483   0.55823
H    -3.27421  -0.86608   0.69246
C    -2.63363  -2.15341  -0.92107
H    -2.13890  -1.34477  -1.46732
H    -2.02640  -3.05359  -1.04225
C    -4.03048  -2.38157  -1.48764
H    -3.95451  -2.63985  -2.54448
H    -4.60653  -1.45707  -1.40713
C    -4.73804  -3.49693  -0.72462
H    -4.19168  -4.43286  -0.86175
H    -5.74673  -3.63632  -1.11744
C    -4.80529  -3.16438   0.76275
H    -5.40371  -2.26138   0.90627
H    -5.28680  -3.97734   1.30979
C    -3.40281  -2.93421   1.32431
H    -2.80813  -3.84431   1.21411
H    -3.46655  -2.70078   2.39063
O     0.72910  -1.19453  -0.87408
