43

Rh    0.00000   0.00000   0.00000
Cl    2.03688   0.04675  -1.15404
Cl   -2.07342  -0.00720   1.05633
S    -1.19111  -0.22712  -2.09760
S     0.14118  -2.34291   0.27413
S    -0.19610   2.35251  -0.15444
C    -2.53852  -1.44151  -1.88220
C    -2.38049  -2.44213  -3.01395
C    -0.88134  -2.67754  -3.16393
C    -0.24486  -1.30071  -3.24195
C    -0.50283  -2.76776   1.93032
C     0.54218  -3.68119   2.54407
C     1.88711  -3.05633   2.19199
C     1.86174  -2.80421   0.69368
C     0.09442   2.83467  -1.89495
C     1.09025   3.97891  -1.83445
C     2.12710   3.54782  -0.80472
C     1.34609   3.14429   0.43378
H    -2.42546  -1.89960  -0.90053
H    -3.47662  -0.89189  -1.91211
H    -2.91455  -3.36440  -2.78633
H    -2.78332  -2.02691  -3.94017
H    -0.50393  -3.21089  -2.29004
H    -0.64890  -3.25820  -4.05660
H     0.80298  -1.27954  -2.94870
H    -0.35699  -0.86063  -4.23329
H    -0.61558  -1.84104   2.49085
H    -1.47707  -3.23347   1.79651
H     0.39922  -3.75048   3.62201
H     0.46834  -4.68435   2.11629
H     1.99402  -2.10487   2.71470
H     2.72307  -3.70382   2.45664
H     2.52552  -2.00172   0.38011
H     2.07839  -3.70660   0.11975
H     0.51531   1.97733  -2.41975
H    -0.86643   3.10302  -2.32883
H     1.53670   4.15155  -2.81382
H     0.59410   4.89569  -1.50825
H     2.68031   2.68678  -1.18303
H     2.83224   4.34502  -0.57060
H     1.88182   2.44641   1.07412
H     1.02799   4.00748   1.02020
O     0.76356   0.18884   1.45045
