27

Ru    0.00000   0.00000   0.00000
Cl   -1.56776   1.77218   0.37713
N     0.12682   0.27583  -2.15242
H    -0.77351   0.15818  -2.61375
H     0.75072  -0.48755  -2.42960
H     0.52130   1.16054  -2.46526
N     1.78253   1.21972   0.25423
H     2.53004   0.53237   0.12070
H     1.85656   1.61513   1.18988
H     1.90107   1.97954  -0.41276
N    -0.30925  -0.40137   2.11531
H     0.41923  -0.30705   2.82299
H    -1.01499   0.33687   2.25924
N    -1.77949  -1.24803  -0.03578
H    -2.44857  -0.48950   0.16540
H    -2.09347  -1.75798  -0.86150
C    -0.88337  -1.70560   2.16875
C    -1.63526  -2.13867   1.06877
C    -2.14941  -3.42391   1.05420
H    -2.70522  -3.76732   0.19287
C    -1.92342  -4.28038   2.12125
H    -2.31772  -5.28433   2.09364
C    -1.18204  -3.85341   3.20586
H    -0.99286  -4.52135   4.03183
C    -0.66274  -2.56773   3.22921
H    -0.05873  -2.24309   4.06500
O     1.05750  -1.24402  -0.23793
