59

Ru    0.00000   0.00000   0.00000
P     1.60968   1.54858  -0.27942
Cl   -1.57644   1.72779   0.50547
O    -0.85496   0.00021  -2.86010
N     0.26125   0.00018   2.19411
C    -0.50655   0.00004  -1.77144
C     3.21372   0.69888  -0.48816
C     4.41366   1.38917  -0.62696
H     4.41169   2.47062  -0.64137
C     5.60184   0.69402  -0.76241
H     6.53132   1.23271  -0.87241
C     0.67265   1.23736   2.87547
H     0.69609   1.05763   3.95967
H    -0.09610   1.99007   2.67052
C     2.02356   1.82225   2.44683
H     2.76702   1.03064   2.32327
H     2.37206   2.47707   3.24982
C     1.92696   2.64135   1.15966
H     2.84837   3.20629   0.98422
H     1.08864   3.34149   1.22017
C     1.49756   2.69196  -1.67517
C     2.25659   2.53897  -2.83135
H     3.00020   1.75580  -2.89160
C     2.05151   3.38699  -3.90490
H     2.64409   3.27009  -4.80060
C     1.08255   4.37444  -3.83817
H     0.92387   5.03080  -4.68096
C     0.30223   4.50680  -2.70011
H    -0.47063   5.25976  -2.65850
C     0.50120   3.66558  -1.62218
H    -0.13492   3.73097  -0.74979
H    -0.76783   0.00010   2.24528
P     1.60964  -1.54792  -0.27944
C     3.21367  -0.69824  -0.48813
C     4.41354  -1.38868  -0.62683
H     4.41141  -2.47013  -0.64113
C     5.60180  -0.69367  -0.76230
H     6.53123  -1.23247  -0.87219
C     0.67271  -1.23705   2.87533
H     0.69606  -1.05743   3.95955
H    -0.09601  -1.98977   2.67026
C     2.02365  -1.82186   2.44671
H     2.76712  -1.03024   2.32326
H     2.37214  -2.47675   3.24966
C     1.92706  -2.64084   1.15948
H     2.84854  -3.20564   0.98392
H     1.08886  -3.34112   1.21996
C     1.49750  -2.69120  -1.67522
C     2.25660  -2.53831  -2.83137
H     3.00014  -1.75509  -2.89167
C     2.05164  -3.38654  -3.90478
H     2.64427  -3.26978  -4.80047
C     1.08275  -4.37403  -3.83792
H     0.92425  -5.03063  -4.68056
C     0.30225  -4.50617  -2.69996
H    -0.47063  -5.25911  -2.65832
C     0.50108  -3.66476  -1.62217
H    -0.13515  -3.72992  -0.74984
O    -1.08737  -1.19100   0.34876
