51

Pt    0.00000   0.00000   0.00000
P    -1.72915   1.00410  -1.03948
N     1.61576  -0.89337   0.86250
C     1.10248   1.66618   0.31121
C    -4.72356   3.31640   0.57531
C    -2.93436  -0.00926  -1.97403
C     4.55888   1.87026   1.78180
C    -3.09399   2.86807   2.27986
C     0.53509   2.31154  -4.09954
C     2.35424   1.34503   0.88791
C    -3.98311   2.58370  -0.33542
C    -2.78139   2.00205   0.05531
C    -4.27913   3.46379   1.87940
C    -2.34968   2.13917   1.37108
C     3.82378  -0.43789   1.74993
C     1.79260  -2.17781   1.11057
C    -0.01595   1.59748  -3.05382
C     3.98787  -1.80756   2.00264
C     2.96691  -2.67264   1.68009
C     0.86027   3.00970   0.09093
C     1.81494   3.98493   0.39633
C    -1.12591   2.08927  -2.37329
C     4.79771   0.56057   2.04216
C     3.03547   3.65357   0.93585
C    -0.01679   3.53009  -4.46459
C     2.60692  -0.02592   1.17008
C    -1.67057   3.31221  -2.73577
C    -1.11218   4.02953  -3.78073
C     3.33197   2.31016   1.20393
H    -2.38078  -0.66388  -2.64646
H    -3.49578  -0.62631  -1.27450
H    -3.60673   0.62525  -2.55091
H     5.30601   2.61617   2.01485
H     0.97814  -2.84272   0.85110
H     4.90559  -2.16712   2.44553
H     1.58235   5.02270   0.20041
H     5.73247   0.24427   2.48237
H     3.76587   4.41708   1.16241
H    -5.65459   3.77062   0.26824
H    -2.75440   2.96994   3.29985
H    -4.34906   2.46037  -1.34479
H    -4.86313   4.03565   2.58535
H    -1.42168   1.65370   1.66512
H     0.41246   0.65040  -2.73026
H     0.41373   4.09560  -5.27776
H    -2.51378   3.71529  -2.19355
H    -1.53231   4.98514  -4.05924
H     1.39627   1.92792  -4.62624
H     3.05757  -3.73211   1.86113
H    -0.08542   3.33430  -0.32464
O    -0.80560  -1.43028  -0.16678
