31

Pd    0.00000   0.00000   0.00000
N     1.11963   1.11004   1.19982
C     2.05289   0.69450   2.23256
N     1.78639   3.00723   2.12059
C     0.09858   3.11827   0.27171
C     2.41916   2.00760   2.96534
C     0.99721   2.38763   1.20656
H     2.01589   2.03479   3.98362
H     1.57398  -0.03962   2.88906
H     2.92290   0.22754   1.75881
H     1.61570   3.94111   2.44924
H     0.46841   4.12118   0.07216
H     3.49830   2.17336   3.00796
H    -0.89935   3.17874   0.71320
H     0.02304   2.54757  -0.66934
Cl    1.74814  -0.27634  -1.44039
N    -1.12011  -1.11030  -1.19924
C    -2.05353  -0.69523  -2.23204
N    -1.78621  -3.00783  -2.11985
C    -0.09843  -3.11820  -0.27097
C    -2.41912  -2.00850  -2.96484
C    -0.99726  -2.38786  -1.20586
H    -2.01553  -2.03561  -3.98301
H    -1.57501   0.03913  -2.88854
H    -2.92381  -0.22871  -1.75833
H    -1.61506  -3.94166  -2.44844
H    -0.46858  -4.12084  -0.07060
H    -3.49818  -2.17468  -3.00778
H     0.89926  -3.17938  -0.71290
H    -0.02222  -2.54692   0.66969
O    -1.26405   0.19971   1.04154
