59

Pt    0.00000   0.00000   0.00000
Cl    1.13386  -0.21443  -1.98105
N    -0.03025  -2.05718   0.02235
H    -0.85057  -2.48011  -0.39968
C     1.02548  -2.79218   0.10293
C     2.24683  -2.17394   0.71352
H     3.09818  -2.24945   0.04300
H     2.49057  -2.64746   1.66368
H     2.03884  -1.11285   0.88435
N     1.06396  -4.08541  -0.27397
C     2.26595  -4.89141  -0.18628
H     1.96309  -5.92535   0.00335
H     2.86552  -4.56329   0.66234
C     3.09667  -4.82188  -1.46739
H     4.01411  -5.39127  -1.34700
H     3.35049  -3.79203  -1.70274
H     2.54407  -5.23104  -2.30928
C    -0.07176  -4.70260  -0.93659
H     0.30025  -5.53799  -1.53219
H    -0.52627  -3.98927  -1.63138
C    -1.10849  -5.21280   0.06415
H    -1.94337  -5.66411  -0.46480
H    -1.48553  -4.40549   0.68765
H    -0.66585  -5.96302   0.71517
P    -1.17311   0.25474   1.93123
C    -1.86554  -1.31465   2.54310
C    -0.97040  -2.24503   3.06783
H     0.06995  -1.96730   3.17478
C    -1.40864  -3.49714   3.45066
H    -0.71149  -4.21307   3.86172
C    -2.74571  -3.83745   3.30370
H    -3.08919  -4.81780   3.59894
C    -3.63799  -2.92024   2.77468
H    -4.67885  -3.18499   2.65896
C    -3.20153  -1.66333   2.39036
H    -3.89848  -0.94872   1.97528
C    -2.63033   1.31316   1.71255
C    -3.20351   1.31471   0.44358
H    -2.74234   0.72105  -0.34085
C    -4.32033   2.08601   0.18716
H    -4.75946   2.09229  -0.79940
C    -4.86636   2.86393   1.19656
H    -5.73407   3.47523   0.99649
C    -4.29296   2.87071   2.45726
H    -4.71368   3.48698   3.23855
C    -3.17528   2.09761   2.72063
H    -2.72113   2.11490   3.70114
C    -0.33008   0.90522   3.40303
C    -0.78705   0.63040   4.68970
H    -1.65374  -0.00151   4.83185
C    -0.12594   1.16104   5.78220
H    -0.48241   0.94937   6.78008
C     0.98995   1.96298   5.59948
H     1.50137   2.37539   6.45686
C     1.44934   2.23315   4.32076
H     2.31951   2.85640   4.17868
C     0.79350   1.70481   3.22310
H     1.13411   1.91265   2.21688
O     0.01296   1.64697  -0.09906
