69

Pt    0.00000   0.00000   0.00000
P     1.29930   1.63519  -0.84659
C     1.58523   3.15747   0.11350
C     1.12290   4.40431  -0.28847
H     0.60888   4.50871  -1.23397
C     1.32304   5.51024   0.52083
H     0.96525   6.47900   0.20327
C     1.97684   5.37625   1.73381
H     2.12897   6.24054   2.36345
C     2.43567   4.13217   2.14102
H     2.94535   4.02753   3.08749
C     2.23858   3.02684   1.33687
H     2.58612   2.05000   1.64580
C     2.99207   1.03672  -1.12876
C     4.10505   1.87234  -1.10001
H     3.98796   2.92571  -0.88310
C     5.36293   1.34942  -1.33973
H     6.22618   1.99914  -1.31770
C     5.51862  -0.00179  -1.60589
H     6.50454  -0.40329  -1.78943
C     4.41273  -0.83551  -1.63453
H     4.53343  -1.88865  -1.84118
C     3.15242  -0.31872  -1.39664
H     2.27751  -0.95528  -1.42926
C     0.76698   2.25806  -2.47001
C    -0.59199   2.22977  -2.76287
H    -1.27996   1.81728  -2.03506
C    -1.05024   2.68719  -3.98389
H    -2.10536   2.65362  -4.21246
C    -0.15170   3.17470  -4.91914
H    -0.50660   3.52457  -5.87752
C     1.20342   3.20183  -4.63217
H     1.90381   3.57332  -5.36619
C     1.66643   2.74427  -3.41137
H     2.72510   2.75315  -3.19308
C     0.15919   0.64821   1.89028
O     0.87577   0.01096   2.64684
N    -0.52233   1.73553   2.33111
C    -1.37157   2.54461   1.49287
H    -1.28689   2.14929   0.46967
H    -1.00092   3.57772   1.49060
C    -2.83635   2.53200   1.92610
H    -3.19589   1.51100   2.01575
H    -3.44013   3.05091   1.18601
H    -2.96340   3.03388   2.88198
C    -0.31500   2.16457   3.70591
H    -0.57615   3.22279   3.77822
H     0.74936   2.04632   3.93187
C    -1.11752   1.33551   4.70543
H    -2.18468   1.40816   4.51291
H    -0.91956   1.68231   5.71655
H    -0.81513   0.29454   4.63029
N    -1.09682  -1.73025   0.62928
H    -1.13454  -2.12874  -0.32025
C    -2.46752  -1.53719   1.09474
H    -2.43593  -1.01891   2.06017
H    -2.96070  -2.50930   1.24943
C    -3.24448  -0.72013   0.07199
H    -2.68304   0.18748  -0.16656
H    -4.22347  -0.44301   0.45456
H    -3.37517  -1.28747  -0.84706
C    -0.31965  -2.64246   1.46889
H    -0.83844  -3.60919   1.55752
H    -0.22726  -2.20510   2.46755
C     1.06718  -2.83624   0.87395
H     0.99926  -3.23168  -0.13837
H     1.64744  -3.52492   1.48252
H     1.58705  -1.87455   0.85392
O    -0.15729  -0.69366  -1.48882
