45

Ni    0.00000   0.00000   0.00000
Cl   -1.91048  -0.62976  -0.75720
N     0.93759   1.42340  -3.59006
N     0.63208   0.25753  -1.72420
N    -0.66207   2.28400  -0.47391
C     1.49023  -0.44999  -2.51607
C     1.69546   0.28337  -3.70383
C     0.30644   1.35639  -2.38563
C    -0.62232   2.32129  -1.81249
C    -1.46109   3.10892   0.18283
C     2.53042  -0.18566  -4.70905
H     2.68676   0.36758  -5.62252
C     2.11672  -1.67677  -2.32130
H     1.93893  -2.22821  -1.41330
C    -1.44432   3.16374  -2.55490
H    -1.45971   3.12937  -3.63113
C     0.95236   2.51049  -4.52885
H     0.81169   3.45627  -4.00721
H     0.17155   2.39061  -5.28488
H     1.92048   2.52694  -5.02935
C     2.94412  -2.13249  -3.32293
H     3.44904  -3.07946  -3.20714
C     3.14910  -1.39969  -4.49575
H     3.80518  -1.79731  -5.25540
C    -2.29627   4.01619  -1.86933
H    -2.95443   4.67709  -2.41431
C    -2.29335   4.00701  -0.48827
H    -2.93424   4.67009   0.07210
C    -1.43034   3.03916   1.67292
H    -0.54505   2.49056   1.98323
H    -2.31277   2.51114   2.03206
H    -1.42507   4.03625   2.10772
O    -0.89082  -0.09865   1.82820
O     0.73628  -2.24419   0.51791
C    -0.40266  -0.43398   3.10865
H    -1.04765  -0.00047   3.88136
H     0.59842  -0.01017   3.19012
H    -0.34683  -1.51608   3.25885
C     0.15750  -3.48795   0.83264
H     0.84755  -4.31055   0.61245
H    -0.72957  -3.58618   0.20839
H    -0.13864  -3.54984   1.88599
H     1.50182  -2.05862   1.08332
H    -1.71698  -0.57141   1.62878
O     1.47677   0.38104   0.62966
