21

W     0.00000   0.00000   0.00000
I     0.09473   1.84713   2.14982
C    -0.52071  -1.90313   0.30940
O    -0.63176  -3.06124   0.48822
C    -1.58140  -0.77089   0.94390
O    -2.63641  -1.03943   1.38848
N     1.36777   1.39565  -0.76109
C     2.15895   2.13458  -1.15431
C     3.13826   3.04906  -1.62990
H     4.13347   2.66940  -1.39588
H     2.99915   4.01376  -1.14035
H     3.04166   3.16714  -2.70982
C     1.46506  -1.04985   0.86493
N    -1.46215   1.26956  -0.81626
O     2.23923  -1.74251   1.36346
C    -2.33034   1.94143  -1.16715
C    -3.40986   2.76605  -1.59386
H    -4.35342   2.28900  -1.32635
H    -3.34653   3.73477  -1.09676
H    -3.36941   2.90496  -2.67482
O     0.09652  -0.51854  -1.56343
