38

Br   -1.95169   0.94313   0.57973
Ni    0.00000   0.00000   0.00000
N     0.28522   0.87515  -1.56415
N    -0.71955  -1.81865  -1.21569
C     0.12172   0.51516  -2.80919
C     1.66014   4.76964  -1.43480
H     2.01996   5.78671  -1.42703
C    -1.10378  -3.14731  -4.63721
H    -1.40444  -4.06898  -5.11264
C    -1.09810  -3.07841  -3.23329
C     0.74249   2.16147  -1.40926
C    -0.71046  -1.88337  -2.56482
C    -0.34168  -0.88446  -4.73585
H    -0.04611  -0.04615  -5.34906
C    -1.07771  -2.86453  -0.49914
C    -1.45446  -4.08825  -1.08654
H    -1.72031  -4.92076  -0.45450
C    -1.46793  -4.19022  -2.44492
H    -1.75303  -5.10834  -2.93807
C    -1.09440  -2.71470   0.99021
H    -0.62293  -1.75237   1.25899
H    -0.50479  -3.51490   1.44408
C    -0.31515  -0.75547  -3.35392
C     1.01825   2.79920  -0.19755
H     0.87411   2.27375   0.74531
C     0.93638   2.84672  -2.61693
C    -0.73103  -2.05766  -5.37618
H    -0.73056  -2.09575  -6.45429
C     1.47465   4.09754  -0.22601
H     1.69275   4.60402   0.70099
C     1.39472   4.15435  -2.64128
H     1.53812   4.66514  -3.57974
C    -2.52207  -2.73741   1.53620
H    -2.50585  -2.64024   2.61857
H    -3.02242  -3.66828   1.27830
H    -3.09601  -1.90914   1.12775
S     0.52559   1.80421  -3.93915
O     1.55055  -0.44850   0.34226
