41

Ni    0.00000   0.00000   0.00000
O    -1.89869   0.21483  -3.68499
Cl    0.62975   1.90738  -0.60639
N    -1.48893  -0.48228  -1.60498
N     1.43081  -0.77777  -1.15339
O    -0.45577  -2.01999   0.76916
C     3.77906  -1.61728  -2.38822
H     4.68645  -1.93580  -2.88028
C     1.58194  -1.16630  -5.32454
H     1.61512  -1.23621  -6.40072
C     2.68288  -1.45867  -4.56800
H     3.60864  -1.77215  -5.02747
C    -2.78922  -0.02817  -1.65553
C     3.72098  -1.45482  -1.03791
H     4.57757  -1.64265  -0.40957
C     0.29673  -0.68199  -3.31571
C    -4.25326   0.92660  -3.36364
H    -4.42166   1.26593  -4.37260
C     2.63471  -1.34475  -3.16664
C     0.40118  -0.78265  -4.69459
H    -0.46917  -0.56518  -5.29395
C     1.44085  -0.94020  -2.49982
C    -3.03329   0.40878  -2.97045
C    -1.00805  -0.30971  -2.80649
C     2.52285  -1.00745  -0.44767
C    -3.78523   0.04270  -0.68845
H    -3.59345  -0.25570   0.32894
C     2.50069  -0.78308   1.02902
H     1.70888  -0.06536   1.30493
H     3.45959  -0.39959   1.37089
H     2.30246  -1.72599   1.53860
C    -5.00145   0.56054  -1.08255
H    -5.79772   0.64348  -0.35874
C    -5.23270   0.99108  -2.39023
H    -6.20127   1.39242  -2.64678
C    -0.75069  -2.31069   2.12654
H    -1.26406  -3.27348   2.20338
H    -1.36148  -1.52261   2.57489
H     0.19646  -2.36817   2.66035
H    -1.28896  -2.04413   0.27678
O    -1.01068   0.65731   1.12649
