23

Ti    0.00000   0.00000   0.00000
Cl   -0.96585   1.28284   1.42270
Si    2.10536  -0.25003   2.67306
Cl   -0.90407  -1.90381   0.36361
F     0.61475  -0.94903   2.79781
C     2.10632   0.04140   0.81315
C     1.75884   1.00493  -1.24349
H     1.67642   1.74252  -2.03173
C     2.04848   1.35625   3.67610
H     2.94192   1.95612   3.53723
H     1.95784   1.14286   4.73673
H     1.18667   1.95304   3.38485
C     1.83073  -0.39444  -1.42833
H     1.82429  -0.90772  -2.38217
C     2.04882  -0.98808  -0.16690
H     2.25002  -2.03831   0.01068
C     1.91722   1.27406   0.13010
H     1.99611   2.25846   0.57639
C     3.34769  -1.56676   3.23626
H     4.37170  -1.25608   3.06044
H     3.18887  -2.50734   2.71647
H     3.23846  -1.75870   4.29879
O    -0.97554   0.40945  -1.26616
