33

Mo    0.00000   0.00000   0.00000
S    -0.09998  -1.62982   2.46560
S    -2.42677  -1.65890  -0.26848
Cl   -1.65829   1.05724   1.12916
O     1.29888   0.68221   0.73013
O    -0.40048   0.49480  -1.50994
C    -1.77535  -2.61381  -2.69526
H    -1.43256  -3.41812  -3.34160
H    -1.00246  -1.84473  -2.66251
H    -2.67732  -2.17876  -3.12031
C    -3.22075  -4.12219  -1.28782
H    -4.13800  -3.61341  -1.57454
H    -3.36014  -4.57446  -0.30898
H    -3.03085  -4.92048  -2.00187
C    -2.05310  -3.15238  -1.30100
H    -1.14829  -3.60620  -0.89125
C    -2.64655  -2.31776   1.42632
H    -3.04325  -1.46647   1.98327
H    -3.41285  -3.09168   1.37626
C    -1.39205  -2.86857   2.07707
H    -0.88143  -3.57641   1.42114
H    -1.64582  -3.37512   3.00851
C    -0.82566  -0.62342   3.84273
H    -1.75969  -0.19799   3.46969
C     0.18147   0.48524   4.10272
H    -0.22390   1.19277   4.82192
H     0.40846   1.02250   3.18084
H     1.10706   0.07154   4.49728
C    -1.05412  -1.48250   5.07318
H    -0.13595  -1.99367   5.35267
H    -1.83356  -2.22303   4.91127
H    -1.36198  -0.84758   5.90098
O     0.67666  -1.46109  -0.36034
