33

W     0.00000   0.00000   0.00000
S    -0.09396  -1.56264  -2.38296
S    -2.35590  -1.57243   0.27889
Cl    0.99333  -2.03094   0.48311
O     1.32808   0.73807  -0.71330
O    -0.35468   0.51795   1.55676
C     0.24479   0.61934  -3.90867
H     0.46684   1.07522  -2.93948
H    -0.15269   1.38929  -4.56471
H     1.17350   0.23958  -4.32890
C    -0.93111  -1.31109  -5.02770
H    -1.70761  -2.06590  -4.93175
H     0.00390  -1.80015  -5.28962
H    -1.21095  -0.64269  -5.83882
C    -0.76778  -0.50433  -3.75337
H    -1.72079  -0.10129  -3.40484
C    -1.40029  -2.81283  -2.07019
H    -1.65677  -3.26966  -3.02575
H    -0.90172  -3.55661  -1.44564
C    -2.64318  -2.26711  -1.39508
H    -3.40013  -3.04602  -1.30529
H    -3.06348  -1.42726  -1.95210
C    -1.96827  -3.04171   1.34796
H    -1.09292  -3.52951   0.91436
C    -1.61141  -2.44785   2.70160
H    -0.86661  -1.65485   2.58954
H    -1.19575  -3.21749   3.34664
H    -2.49388  -2.02467   3.17642
C    -3.15510  -3.98328   1.42581
H    -3.35244  -4.46379   0.47084
H    -4.04626  -3.44566   1.74021
H    -2.94505  -4.76126   2.15625
O    -1.21082   0.80203  -0.78305
