55

Ru    0.00000   0.00000   0.00000
C     1.54739  -0.81229   0.58340
O     2.49767  -1.28716   1.03956
C    -0.17806  -0.65253  -1.84664
N     0.43947  -1.47482  -2.71834
C    -0.19235  -1.43725  -3.94579
C     0.06219  -2.08544  -5.14495
C    -0.76856  -1.81846  -6.21919
C    -1.82446  -0.92539  -6.10905
C    -2.09217  -0.27254  -4.91709
C    -1.27366  -0.53879  -3.83266
N    -1.24562  -0.08001  -2.52678
C    -2.09529   0.72404  -1.78911
N    -1.66462   0.83917  -0.52278
C    -2.40705   1.45380   0.39661
C    -3.58928   2.08792   0.05550
C    -4.01220   2.03933  -1.26758
C    -3.27715   1.32785  -2.20196
C    -1.92826   1.26244   1.80959
N    -0.46228   1.13510   1.90353
C     1.58229  -2.29440  -2.35898
C     2.81558  -1.90007  -3.16742
C     1.24009  -3.77926  -2.45714
C     0.10878   2.49330   1.95803
C     1.62408   2.52675   2.10238
C    -0.09779   0.33555   3.09134
C    -0.53304   0.90145   4.44371
H     0.87889  -2.77822  -5.25663
H    -0.58759  -2.31296  -7.16117
H    -2.45068  -0.73257  -6.96636
H    -2.91295   0.42185  -4.86431
H    -4.17575   2.59180   0.80710
H    -4.92710   2.52791  -1.56367
H    -3.62913   1.24122  -3.21370
H    -2.30791   2.06615   2.45665
H    -2.36572   0.30964   2.13925
H     1.77333  -2.05778  -1.30592
H     3.68101  -2.43627  -2.78877
H     2.99546  -0.83324  -3.05787
H     2.70059  -2.12994  -4.22268
H     2.07113  -4.36696  -2.07746
H     1.03733  -4.08425  -3.47981
H     0.36390  -3.99174  -1.84916
H    -0.34667   3.05420   2.78819
H    -0.16792   2.99572   1.02588
H     1.97744   3.53674   1.90938
H     1.94170   2.24204   3.10174
H     2.07933   1.85470   1.37609
H     0.98774   0.20965   3.08699
H    -0.54504  -0.65544   2.96209
H    -0.23829   0.19820   5.21858
H    -0.05598   1.85442   4.66047
H    -1.61171   1.02629   4.50119
H     0.79591   1.19867  -0.53725
O    -0.94385  -1.22396   0.57756
