66

Ru    0.00000   0.00000   0.00000
P    -0.30881   1.78538  -1.41292
O     2.98482   0.16557   0.10178
N    -2.01774  -0.33949   0.11430
N    -0.45171   1.03698   1.64803
C    -2.06391   1.91241  -1.87668
C    -2.52557   1.34659  -3.06080
H    -1.81325   0.95892  -3.77612
C    -3.88420   1.27685  -3.31313
H    -4.23706   0.84061  -4.23601
C    -4.79178   1.75418  -2.38209
H    -5.85182   1.69354  -2.57849
C    -4.33975   2.30222  -1.19186
H    -5.04688   2.66540  -0.45989
C    -2.98392   2.37475  -0.93596
H    -2.62795   2.78848   0.00061
C     0.11027   3.45385  -0.78679
C    -0.68597   4.58357  -0.93764
H    -1.64479   4.51607  -1.43269
C    -0.25114   5.80379  -0.44959
H    -0.87782   6.67696  -0.56196
C     0.97989   5.91039   0.17561
H     1.31041   6.86546   0.55626
C     1.78787   4.79257   0.30644
H     2.75181   4.87098   0.78623
C     1.35366   3.57104  -0.17114
H     1.97373   2.68914  -0.07006
C     0.55558   1.89370  -3.01315
C     1.54933   0.97626  -3.32845
H     1.76410   0.17585  -2.63143
C     2.23444   1.08605  -4.52674
H     3.00576   0.37121  -4.77130
C     1.93044   2.10876  -5.40939
H     2.46423   2.19274  -6.34452
C     0.94064   3.02788  -5.09484
H     0.70516   3.82606  -5.78370
C     0.25692   2.92714  -3.89857
H    -0.51221   3.64495  -3.64738
C    -2.77510  -1.07308  -0.69129
H    -2.29490  -1.45583  -1.58201
C    -4.10540  -1.34695  -0.43045
H    -4.67491  -1.94749  -1.12093
C    -4.68502  -0.84750   0.73164
H    -5.71902  -1.05251   0.96397
C    -3.90845  -0.09242   1.58203
H    -4.30336   0.30972   2.50237
C    -2.57071   0.14696   1.24831
C    -1.67833   0.92446   2.05059
H    -2.02598   1.38959   2.97089
C     0.42855   1.81332   2.40771
C     0.13327   3.13843   2.71362
H    -0.78606   3.58103   2.35372
C     1.03789   3.90180   3.42772
H     0.80547   4.93605   3.63782
C     2.23418   3.35852   3.87369
C     2.50390   2.02122   3.59250
H     3.42294   1.57914   3.94817
C     1.62018   1.25342   2.86527
H     1.82142   0.20948   2.66667
C     3.22364   4.17955   4.64173
H     2.85731   5.19139   4.79547
H     4.17050   4.22903   4.10521
H     3.41874   3.72757   5.61324
C     1.83544   0.15130   0.06555
H     0.14752  -0.95452  -1.19710
O     0.07176  -1.32941   0.97469
