47

Fe    0.00000   0.00000   0.00000
Br    1.03673  -1.90678   0.55821
P    -1.30412  -0.64396  -1.60989
P    -1.44525   0.31696   1.58681
C    -2.65476  -1.88825  -1.38974
C    -2.18178  -3.22053  -0.82398
C    -2.21285   0.69079  -2.52304
C    -2.75436   0.36405  -3.90962
C    -0.27240  -1.45162  -2.91318
C     0.91110  -0.56633  -3.28835
C    -3.04541   1.21190   1.34319
C    -2.88754   2.61495   0.77284
C    -2.02977  -1.19676   2.48554
C    -2.66677  -1.01052   3.85741
C    -0.65313   1.34015   2.90634
C     0.69965   0.75771   3.30113
H    -3.13941  -2.04200  -2.35790
H    -3.38573  -1.43192  -0.71402
H    -3.03578  -3.84486  -0.56762
H    -1.57633  -3.75874  -1.54843
H    -1.58286  -3.07178   0.07095
H    -1.53035   1.54246  -2.58982
H    -3.03251   0.98896  -1.86149
H    -3.32538   1.21422  -4.27849
H    -1.94811   0.17518  -4.61353
H    -3.41475  -0.49974  -3.89417
H    -0.89200  -1.68444  -3.78368
H     0.09392  -2.39091  -2.48770
H     1.52311  -1.04279  -4.05189
H     0.57928   0.40053  -3.66398
H     1.54436  -0.39167  -2.41395
H    -3.56358   1.25373   2.30526
H    -3.64257   0.59537   0.66318
H    -3.86010   3.02399   0.50522
H    -2.42969   3.28166   1.49875
H    -2.26173   2.60456  -0.11592
H    -1.16479  -1.86006   2.57228
H    -2.73793  -1.68250   1.80661
H    -3.02239  -1.97386   4.21858
H    -1.94743  -0.63084   4.57825
H    -3.51687  -0.33341   3.82148
H    -0.51204   2.34087   2.48664
H    -1.32381   1.41723   3.76666
H     1.17014   1.36312   4.07359
H     1.36980   0.73939   2.43703
H     0.59912  -0.26099   3.67282
O     0.42065   1.54427  -0.40097
