50

Cu    0.00000   0.00000   0.00000
S    -1.93429  -1.02354  -0.08180
N    -1.38885  -1.13403  -2.77698
N    -3.18859  -2.18624  -2.14288
C    -2.14961  -1.44007  -1.70039
C    -1.95907  -1.69699  -3.89359
H    -1.52050  -1.57486  -4.86229
C    -3.07467  -2.34932  -3.50059
H    -3.79615  -2.90751  -4.06060
C    -4.22889  -2.70769  -1.32714
C    -4.11920  -4.00886  -0.84059
C    -5.14956  -4.50343  -0.05775
H    -5.07954  -5.50897   0.33072
C    -6.26276  -3.73100   0.24766
C    -6.33462  -2.43525  -0.24287
H    -7.19026  -1.82178  -0.00141
C    -5.32569  -1.90254  -1.03076
C    -2.90083  -4.82661  -1.14057
H    -2.01965  -4.34369  -0.71907
H    -2.74853  -4.92563  -2.21501
H    -2.98992  -5.81925  -0.70866
C    -7.36941  -4.29838   1.08156
H    -7.97264  -3.50723   1.51876
H    -6.97034  -4.92079   1.87903
H    -8.01835  -4.92035   0.46437
C    -5.38709  -0.49370  -1.53290
H    -6.35192  -0.04782  -1.30926
H    -4.61147   0.09932  -1.04894
H    -5.22175  -0.45203  -2.60907
C    -0.20254  -0.34706  -2.79530
C     1.03803  -0.99028  -2.80858
C     2.17734  -0.20743  -2.87739
H     3.14546  -0.68460  -2.85663
C     2.10416   1.17867  -2.92660
C     0.85566   1.78608  -2.94503
H     0.79141   2.86334  -2.98030
C    -0.31154   1.04382  -2.87923
C     1.11400  -2.48498  -2.71680
H     0.62412  -2.83262  -1.80696
H     0.61956  -2.95594  -3.56712
H     2.14996  -2.80974  -2.69307
C     3.34791   2.00202  -2.89414
H     3.60305   2.17130  -1.84762
H     3.19831   2.96714  -3.37158
H     4.17836   1.48524  -3.36877
C    -1.66109   1.69737  -2.87359
H    -2.29615   1.29136  -3.66161
H    -2.15757   1.52604  -1.91783
H    -1.56405   2.76911  -3.01985
O     1.44668   0.76830   0.19835
