50

Se   -2.28878   0.65547  -0.17669
Cu    0.00000   0.00000   0.00000
C    -0.47167   0.09784  -2.97766
C     0.73638   0.79440  -3.05477
N    -3.54367   1.81674  -2.41732
C    -4.61646   2.31314  -1.62764
C    -0.51664  -1.29690  -2.96053
C     1.90863   0.06183  -3.12710
H     2.85360   0.58175  -3.16556
C     1.90010  -1.32790  -3.11485
C    -5.73283   1.50710  -1.41871
C     0.68288  -1.98893  -3.02559
H     0.66619  -3.06852  -2.99812
C    -3.39582   1.98272  -3.76839
H    -4.11875   2.51433  -4.35236
C    -4.51535   3.59101  -1.07945
C     0.75264   2.29327  -3.03486
H     0.37115   2.70173  -3.97163
H     0.13100   2.67523  -2.22442
H     1.76605   2.65547  -2.88829
C    -6.77008   2.01490  -0.65155
H    -7.64066   1.40028  -0.47564
C    -5.78254   0.12260  -1.98658
H    -5.60588   0.13063  -3.06214
H    -5.01162  -0.49403  -1.52286
H    -6.74783  -0.33660  -1.79452
C    -1.82895  -2.01483  -2.86977
H    -2.29356  -1.83715  -1.89795
H    -2.51950  -1.66952  -3.64019
H    -1.68569  -3.08561  -2.98376
C    -5.57405   4.05939  -0.31952
H    -5.51201   5.04491   0.11821
C    -3.27723   4.40717  -1.28828
H    -2.42696   3.91818  -0.81101
H    -3.05058   4.51746  -2.34884
H    -3.39044   5.39489  -0.85107
C     3.18574  -2.08470  -3.14290
H     3.89777  -1.61655  -3.81816
H     3.61908  -2.07570  -2.14263
H     3.02960  -3.11772  -3.44143
C    -7.83842   3.82797   0.71718
H    -8.39068   4.57055   0.14106
H    -8.52604   3.03760   1.00555
H    -7.46387   4.31489   1.61497
C    -6.70667   3.28570  -0.09874
N    -1.69065   0.83305  -2.99224
C    -2.49378   1.11271  -1.94405
C    -2.24320   1.37284  -4.12565
H    -1.77195   1.26643  -5.08102
O     1.58602  -0.34155   0.30065
