50

C    -0.17446   1.42073  -2.62847
C     1.20141   0.98155  -2.41848
C     2.13903   1.19074  -3.40074
H     3.15660   0.86811  -3.24892
C     1.74659   1.80816  -4.60381
H     2.47371   1.96293  -5.38283
C     0.45971   2.19846  -4.79089
H     0.10543   2.66340  -5.69515
C     2.47893   2.64661   0.64669
C     3.48725   1.69282   0.53628
H     3.26516   0.64508   0.67818
C     4.78188   2.08659   0.24713
H     5.55749   1.34153   0.15741
C     5.07986   3.42821   0.07557
H     6.08962   3.73412  -0.15389
C     4.08257   4.38170   0.20726
H     4.31506   5.42988   0.08946
C     2.78550   3.99743   0.49318
H     2.01202   4.74563   0.60220
C    -0.29834   3.43335   0.47283
C    -0.09877   4.00395  -0.78331
H     0.77300   3.73374  -1.36766
C    -1.00809   4.91670  -1.28218
H    -0.84649   5.35826  -2.25541
C    -2.12620   5.26018  -0.53888
H    -2.83817   5.96943  -0.93373
C    -2.33366   4.68781   0.70528
H    -3.20844   4.94963   1.28117
C    -1.42895   3.77178   1.20990
H    -1.59506   3.31207   2.17372
C     0.70386   2.14594   2.85564
C     1.52050   2.99750   3.59290
H     2.23223   3.63818   3.09184
C     1.42336   3.01420   4.97208
H     2.05928   3.67319   5.54431
C     0.51972   2.18608   5.61839
H     0.45323   2.19999   6.69579
C    -0.29088   1.33441   4.88556
H    -0.98805   0.68148   5.38771
C    -0.19918   1.30937   3.50609
H    -0.82009   0.63511   2.92715
O    -1.35010  -0.05223   0.94835
O    -1.02480   1.27288  -1.72892
O     1.38548   0.42144  -1.26161
Br    1.42390  -1.31707   1.47280
P     0.79160   2.10396   1.04189
Re    0.00000   0.00000   0.00000
N    -0.46839   2.00924  -3.80558
H    -1.43258   2.28509  -3.95131
O    -0.36011  -1.31341  -0.93155
