38

Pd    0.00000   0.00000   0.00000
Br    1.91445  -1.41404   0.51635
S    -0.32436  -1.33365  -2.95355
S     1.49616   3.03594   3.12476
N    -1.37792  -2.35901  -0.89652
N     0.71445   1.43738   1.27625
C    -0.63006  -1.32168  -1.25843
C    -1.76311  -3.20923  -1.91529
C    -2.54791  -4.35288  -1.82831
H    -2.95407  -4.67361  -0.88337
C    -2.80340  -5.05913  -2.98702
H    -3.41124  -5.94914  -2.93855
C    -2.29487  -4.64492  -4.21494
H    -2.51266  -5.21797  -5.10245
C    -1.51673  -3.50778  -4.31341
H    -1.11918  -3.17534  -5.25856
C    -1.25828  -2.79728  -3.15393
C    -1.79432  -2.56168   0.48401
H    -1.56476  -3.59076   0.77654
H    -1.19544  -1.86879   1.12031
C    -3.25204  -2.24896   0.65911
H    -3.56465  -1.29740   0.24851
C    -4.10133  -3.03810   1.28780
H    -3.79756  -3.98096   1.71515
H    -5.13363  -2.76591   1.41754
C     0.59455   1.68435   2.53368
H    -0.02099   1.10691   3.20196
C     1.55410   2.32293   0.65004
C     1.87919   2.31567  -0.70883
H     1.44822   1.55764  -1.37896
C     2.74710   3.27861  -1.17345
H     3.01698   3.29510  -2.21799
C     3.28643   4.23611  -0.31261
H     3.96518   4.97641  -0.70703
C     2.97089   4.25812   1.03112
H     3.38709   4.99963   1.69404
C     2.09799   3.29364   1.50995
O    -1.36478   0.89204  -0.25326
