52

Ti    0.00000   0.00000   0.00000
S    -0.87236   1.84780   1.26868
O     1.38143  -0.87701   0.52872
N    -0.83957  -0.96659   1.73572
C    -2.17877   0.97759   2.00184
C    -3.34406   1.61254   2.43382
H    -3.42717   2.68013   2.30213
C    -4.36342   0.87937   3.00140
H    -5.26671   1.37434   3.32463
C    -4.24175  -0.49944   3.14385
H    -5.05409  -1.07297   3.56345
C    -3.08756  -1.14111   2.74379
H    -3.01507  -2.21587   2.83343
C    -2.03802  -0.41397   2.17808
C    -0.36257  -2.02784   2.30408
H    -0.90863  -2.48340   3.13509
C     0.87502  -2.64887   1.96426
C     1.25299  -3.85588   2.57308
H     0.56516  -4.33462   3.25577
C     2.47369  -4.42363   2.30114
C     3.34903  -3.75991   1.43029
H     4.30556  -4.22375   1.25160
C     3.04465  -2.56198   0.81744
C     1.76604  -1.99804   1.06885
C     2.89767  -5.71938   2.92230
H     2.12003  -6.11320   3.57112
H     3.80327  -5.57870   3.51076
H     3.11415  -6.45666   2.15060
C     4.01882  -1.82497  -0.09078
C     5.34010  -2.58140  -0.26130
H     5.18083  -3.55450  -0.72089
H     5.84574  -2.71232   0.69248
H     5.99739  -2.00782  -0.91066
C     3.38848  -1.63922  -1.47942
H     4.12257  -1.21425  -2.16006
H     2.53926  -0.95680  -1.43002
H     3.05936  -2.59750  -1.87987
C     4.32398  -0.45196   0.52675
H     4.74291  -0.57014   1.52473
H     3.42376   0.15879   0.59364
H     5.04380   0.07843  -0.09201
C    -1.23261   0.45008  -1.93446
H    -1.34379   1.44242  -2.35675
C    -0.23095  -0.48624  -2.28157
H     0.54431  -0.33165  -3.02231
C    -0.50334  -1.69219  -1.59886
H     0.02604  -2.62982  -1.72455
C    -1.67180  -1.49989  -0.83514
H    -2.20548  -2.26968  -0.29221
C    -2.11658  -0.17301  -1.03542
H    -3.04842   0.24247  -0.67013
O     1.01493   1.18841  -0.52924
