45

Rh    0.00000   0.00000   0.00000
O    -0.15493  -1.71555  -2.23857
N     0.86050  -1.18438   1.42360
C    -1.36389   1.53997   1.18594
C    -0.77566   2.21815   0.12318
C    -0.00295   3.49681   0.15402
H     0.14941   3.84050   1.17377
H    -0.54403   4.26626  -0.39794
H     0.97055   3.36524  -0.31676
C    -1.11258   1.50261  -1.10731
C    -0.84265   2.01969  -2.48650
H    -0.89015   1.21035  -3.21123
H     0.14316   2.47563  -2.54055
H    -1.58856   2.77199  -2.75264
C    -2.05434   0.48519  -0.78026
C    -2.07799   0.38686   0.64209
C    -3.00438  -0.47593   1.44557
H    -2.57166  -0.73065   2.41154
H    -3.22945  -1.40152   0.92042
H    -3.94099   0.05627   1.62410
C    -2.87117  -0.28380  -1.76815
H    -3.50292   0.40677  -2.32694
H    -3.50657  -1.01159  -1.27075
H    -2.23326  -0.80881  -2.47853
C    -1.40634   1.97040   2.62042
H    -2.24765   2.64984   2.77287
H    -0.49550   2.49439   2.90528
H    -1.54416   1.12011   3.28574
C     1.39970  -2.32461   0.92140
C     1.12112  -2.60752  -0.43147
C     0.28377  -1.59732  -1.12506
C     1.67393  -3.71640  -1.03082
H     1.47284  -3.91592  -2.07212
C     2.49467  -4.57213  -0.28269
H     2.92077  -5.44126  -0.76121
C     2.75589  -4.32535   1.04011
H     3.38329  -4.99351   1.61171
C     2.21971  -3.18804   1.68193
C     2.45869  -2.83609   3.02572
H     3.08378  -3.46365   3.64320
C     1.89925  -1.68259   3.51453
H     2.06671  -1.37254   4.53416
C     1.11616  -0.87637   2.67999
H     0.70284   0.05074   3.05642
O     1.53472   0.38127  -0.47092
