45

Fe    0.00000   0.00000   0.00000
Cl   -0.57527   1.35045   1.69154
N    -1.12593  -1.46069   0.99744
H    -1.01334  -1.01896   1.91128
H    -0.78118  -2.41205   1.08753
C    -2.52798  -1.40238   0.58601
H    -3.21441  -1.57389   1.42529
H    -2.71757  -2.17719  -0.16123
C    -2.80100  -0.01431  -0.00401
H    -3.80227   0.02427  -0.45529
H    -2.73844   0.71558   0.80374
N    -1.75674   0.32098  -0.97076
C    -1.68929   1.74288  -1.28718
H    -1.80674   2.28349  -0.34689
H    -2.48155   2.05261  -1.98328
C    -0.31144   2.08068  -1.86274
H    -0.14387   1.52348  -2.78646
H    -0.28651   3.15194  -2.10112
N     0.72409   1.70631  -0.89961
H     0.64476   2.33007  -0.09435
C     2.12629   1.70557  -1.35844
C     2.37032   2.62847  -2.55884
H     1.88234   2.26696  -3.46046
H     3.43853   2.68045  -2.75351
H     2.02212   3.63782  -2.35004
C     2.97643   2.17671  -0.17866
H     4.03455   2.07308  -0.40174
H     2.74864   1.56485   0.69133
H     2.77137   3.22042   0.05310
C     2.54666   0.25085  -1.70969
H     3.42748   0.27405  -2.34794
H     2.79694  -0.23431  -0.76474
C     1.45395  -0.55899  -2.32717
C     1.58764  -0.95427  -3.77434
H     0.74021  -0.60834  -4.36834
H     1.64448  -2.03903  -3.87105
H     2.49375  -0.53100  -4.19672
N     0.45705  -0.86689  -1.57792
C    -0.68587  -1.56793  -2.09440
H    -0.92290  -2.35827  -1.38477
H    -0.52513  -2.02343  -3.07552
C    -1.82136  -0.53546  -2.15905
H    -1.68953   0.07339  -3.05562
H    -2.79395  -1.03044  -2.23552
O     1.29149  -0.56176   0.85964
