42

Hf    0.00000   0.00000   0.00000
Cl    0.73583  -1.52297  -1.55041
C     1.31741   1.65930   1.01877
C     0.79624   0.86356   2.11060
C     1.43693  -0.43614   2.08817
C     2.35483  -0.45412   0.98603
C     2.28139   0.83204   0.32465
C     3.16068   1.03621  -0.76446
C     4.01760   0.03589  -1.15728
C     4.06688  -1.20159  -0.50651
C     3.24744  -1.44622   0.56876
C    -0.12270   1.09969   3.16092
C    -0.37414   0.12015   4.09176
C     0.25866  -1.12727   4.05118
C     1.16912  -1.40506   3.06058
C     0.65131   2.92641   0.45187
C     0.09227   3.85543   1.53982
C     1.59950   3.78721  -0.39485
C    -0.44938   2.28697  -0.39315
C    -1.66348   1.75120   0.12188
C    -2.23714   0.91806  -0.86844
C    -1.36742   0.88193  -1.96946
C    -0.24519   1.69530  -1.67337
H     3.21598   1.98148  -1.27683
H     4.68233   0.21429  -1.98931
H     4.75809  -1.95557  -0.84784
H     3.28836  -2.38891   1.09510
H    -0.60353   2.05502   3.28692
H    -1.07629   0.32281   4.88656
H     0.03242  -1.86356   4.80574
H     1.67938  -2.35685   3.02653
H     0.84520   4.02677   2.30521
H    -0.17367   4.81361   1.09923
H    -0.80381   3.46477   2.00462
H     2.51890   3.97899   0.15261
H     1.83985   3.33047  -1.34633
H     1.12501   4.74113  -0.61342
H    -2.16852   2.04753   1.03022
H    -3.22041   0.47329  -0.82053
H    -1.56497   0.40742  -2.91985
H     0.52957   1.94096  -2.38642
O    -0.99066  -1.09552   0.73547
