57

Pt    0.00000   0.00000   0.00000
N     0.30231   0.05394   2.30594
N     0.34357  -2.08525   0.65793
N    -1.42154   2.56560   2.67604
C     0.37495   1.12031   3.09181
C     0.94025   1.08161   4.36439
C     1.43529  -0.11717   4.84013
C     1.33883  -1.23589   4.03419
C     0.76518  -1.12038   2.76830
C     0.69005  -2.27889   1.87213
C     1.05213  -3.63047   2.41138
C     0.33552  -3.12769  -0.28085
C     1.52223  -3.48931  -0.91734
C     1.50853  -4.46851  -1.89190
C     0.32509  -5.10349  -2.23046
C    -0.85131  -4.75143  -1.59070
C    -0.85322  -3.76735  -0.61996
C    -2.04117  -0.18523   0.22182
C    -0.11108  -0.44084  -2.00702
C    -0.37781   1.93868  -0.60935
C    -0.16971   2.42321   2.62315
C     0.86510   3.42217   2.19804
C    -2.12601   3.72316   2.40127
C    -3.14454   3.68003   1.44859
C    -3.92438   4.79556   1.21981
C    -3.72464   5.95524   1.95190
C    -2.73098   5.99466   2.91508
C    -1.92840   4.89192   3.13677
H     0.97724   1.97882   4.96144
H     1.88755  -0.18147   5.81805
H     1.72355  -2.18075   4.37824
H     0.52440  -3.82628   3.34289
H     2.12451  -3.67989   2.59954
H     0.79667  -4.40454   1.69064
H     2.44082  -2.98356  -0.65888
H     2.43021  -4.73570  -2.38620
H     0.31930  -5.86929  -2.99096
H    -1.77690  -5.24522  -1.84676
H    -1.77019  -3.49425  -0.11927
H    -2.63264   0.30005  -0.55181
H    -2.30171   0.25926   1.18480
H    -2.31501  -1.24064   0.24112
H     0.45084  -1.36810  -2.14693
H     0.35986   0.33719  -2.60938
H    -1.13253  -0.58984  -2.35678
H     0.55924   2.43709  -0.86512
H    -0.85977   2.48789   0.19729
H    -1.03234   1.99480  -1.48002
H     1.56345   2.95654   1.50468
H     1.43668   3.74890   3.06666
H     0.40208   4.28680   1.72827
H    -3.29704   2.77270   0.88487
H    -4.70024   4.75788   0.46931
H    -4.34400   6.82184   1.77611
H    -2.57307   6.89302   3.49418
H    -1.15922   4.91779   3.89573
O     1.64075   0.17008  -0.03888
