46

Rh    0.00000   0.00000   0.00000
P    -1.96625   0.06707   1.09821
O    -2.20845  -1.23026   2.03875
O    -2.42632   1.33489   2.00260
O    -3.35395  -0.05476   0.29009
O     0.72417  -1.30785   1.51216
H     1.48412  -1.60376   0.95465
O    -0.72452   1.92919  -2.12968
C    -0.44716   1.17378  -1.30998
C    -1.19886  -1.85957   2.82480
C    -0.06147  -2.42824   1.91150
C    -0.61891  -3.12397   0.66347
H    -1.19482  -2.41559   0.05715
H    -1.26108  -3.95926   0.92696
H     0.20827  -3.49868   0.06135
C     0.85425  -3.39841   2.66584
H     1.25039  -2.94323   3.56904
H     1.69390  -3.66174   2.02466
H     0.32996  -4.31157   2.92635
C    -0.64369  -0.83524   3.81711
H    -0.19870   0.00090   3.27955
H     0.10040  -1.28128   4.47007
H    -1.46147  -0.45302   4.42275
C    -1.93503  -2.96691   3.58359
H    -2.29263  -3.73229   2.90170
H    -2.79685  -2.52916   4.08081
H    -1.29297  -3.41650   4.33356
C    -3.83550   1.57575   1.91457
C    -4.18971   1.09223   0.47708
C    -4.54205   0.74768   2.98710
H    -4.42486  -0.31190   2.77650
H    -5.59699   1.00149   3.03712
H    -4.08274   0.96193   3.94967
C    -4.07971   3.06070   2.15627
H    -3.87936   3.29118   3.19933
H    -5.11306   3.31084   1.93231
H    -3.41890   3.66503   1.54393
C    -3.81545   2.13029  -0.57909
H    -2.80907   2.50103  -0.39686
H    -4.51962   2.95707  -0.58039
H    -3.82708   1.65278  -1.55593
C    -5.63847   0.65688   0.29375
H    -5.85765  -0.22032   0.89336
H    -5.80309   0.40427  -0.75019
H    -6.30927   1.46523   0.57137
O     1.44782  -0.41948  -0.67109
