55

Ni    0.00000   0.00000   0.00000
P     0.56948  -1.73065   1.16761
P     0.12982   1.97315  -0.87637
Cl   -1.53885  -3.05348  -4.26359
Cl   -4.27733  -0.89878   3.82504
Cl   -4.96794   1.81270  -0.84118
C     0.51679  -0.85651  -1.58226
C     1.80317  -0.95853  -2.09509
C     2.05524  -1.68828  -3.24688
C     1.02516  -2.33586  -3.90819
C    -0.26135  -2.23743  -3.41387
C    -0.54367  -1.50017  -2.26197
C    -1.87602  -1.36158  -1.72293
C    -3.56745  -0.28552   0.97022
C    -4.65196   0.49189   1.51516
C    -5.06030   0.28737   2.84552
C    -6.08426   1.01211   3.42508
C    -6.74628   1.97667   2.68538
C    -6.38073   2.20739   1.37173
C    -5.35302   1.47750   0.80030
C     1.08750  -3.31274   0.39304
C    -0.60341  -2.35576   2.42562
C     2.03121  -1.34409   2.19782
C     1.36119   3.07155  -0.08402
C    -1.40239   2.95509  -0.72197
C     0.51582   2.22158  -2.65287
N    -2.03712  -0.56920  -0.72462
N    -3.12326  -0.12224  -0.21497
H    -6.88870   2.95389   0.78188
H    -7.54548   2.54587   3.13273
H     1.21730  -2.91018  -4.80091
H    -3.12638  -1.02872   1.63125
H     1.78709  -0.50337   2.84514
H    -0.22546   1.69934  -3.25465
H    -6.35841   0.82037   4.45048
H    -1.23756   3.96254  -1.10297
H     3.06249  -1.75992  -3.63177
H     1.31035   4.06643  -0.52545
H     1.14518   3.12553   0.98150
H    -0.96146  -1.52263   3.02747
H     1.36404  -4.03510   1.15971
H     2.62820  -0.46963  -1.59108
H     0.26695  -3.71090  -0.20116
H    -2.70551  -1.91973  -2.14885
H    -2.19543   2.47171  -1.28955
H     2.35982   2.66014  -0.22250
H     1.49534   1.80708  -2.88079
H     0.50211   3.28260  -2.89782
H     2.86363  -1.06520   1.55329
H     2.30623  -2.21062   2.79852
H    -1.44663  -2.83329   1.92843
H    -1.69642   2.99487   0.32510
H     1.93357  -3.13891  -0.26814
H    -0.10186  -3.08393   3.06263
O    -0.43935   0.72281   1.41669
