43

Pt    0.00000   0.00000   0.00000
S    -1.48794  -0.62691  -1.54992
Cl   -1.77618   0.98025   1.15831
N     1.25994   0.69660   1.39614
O     0.18197  -1.83297   5.40616
O     1.46261  -0.05110   5.49889
O    -1.09839  -1.45466  -2.67000
C     3.64970   4.01999   1.35079
H     4.28694   4.89057   1.38042
N     2.22974   1.23079   3.31173
H     2.40767   1.16803   4.30923
C     2.63542   2.17178   2.40835
C     0.84581  -0.82633   4.79954
C     2.01427   1.82014   1.18933
C     3.03515   3.67424   0.14092
H     3.21803   4.28735  -0.72796
C     0.78099  -0.76260   3.33263
C    -0.51838  -2.80380   3.31983
C    -1.14720  -3.77779   5.45589
H    -1.11113  -3.74150   6.53271
C     2.21007   2.57689   0.03704
H     1.73391   2.28896  -0.88995
C    -0.49157  -2.79042   4.72552
C     1.40680   0.36233   2.67442
C     0.14843  -1.75042   2.63805
H     0.15208  -1.74504   1.54593
C    -2.95326  -1.40987  -0.80602
H    -2.65567  -2.38468  -0.43436
H    -3.70566  -1.52428  -1.57753
H    -3.29835  -0.77939   0.00530
C    -1.20708  -3.83442   2.66485
H    -1.21624  -3.84516   1.58568
C    -1.85148  -4.80664   3.39200
H    -2.38209  -5.59852   2.88654
C     3.46453   3.28200   2.50097
H     3.93898   3.55048   3.43129
C    -1.82316  -4.77612   4.78608
H    -2.33303  -5.54316   5.34815
C    -2.28164   0.86239  -2.22053
H    -2.66889   1.43699  -1.38646
H    -3.06911   0.56147  -2.90194
H    -1.52426   1.42672  -2.75554
O     1.25540  -0.72098  -0.79162
