47

Pt    0.00000   0.00000   0.00000
Cl   -0.57737  -1.39023  -1.74713
S    -1.34435  -1.15611   1.35611
O     0.55929   5.27108  -1.81078
O    -1.36004   5.35644  -0.74461
O    -3.21255   6.93917   0.26980
O    -2.65436  -0.52688   1.34413
N     1.79836   2.98342  -2.26556
H     1.80065   3.96886  -2.51443
N     1.06355   1.17594  -1.22315
C    -4.16138   7.82551   0.81502
H    -5.14258   7.70155   0.34597
H    -4.25423   7.69738   1.89793
H    -3.78318   8.82349   0.60115
C    -3.41434   5.60949   0.40799
C    -4.50191   5.01267   1.02863
H    -5.28271   5.62255   1.45366
C    -4.60642   3.62507   1.12393
H    -5.46325   3.20209   1.62480
C    -3.64240   2.80291   0.59709
H    -3.69676   1.72901   0.68723
C    -2.53294   3.37655  -0.04254
C    -2.41694   4.77039  -0.13060
C    -0.32629   4.65885  -1.24752
C    -0.36410   3.19574  -1.10655
C    -1.47298   2.60032  -0.58265
H    -1.57629   1.51452  -0.55841
C     0.79974   2.44566  -1.52616
C     2.75463   2.02501  -2.45080
C     3.97285   2.01783  -3.11676
H     4.33841   2.89674  -3.62323
C     4.68814   0.83873  -3.09798
H     5.64032   0.79162  -3.60401
C     4.21567  -0.30282  -2.44016
H     4.81637  -1.19906  -2.45884
C     3.01010  -0.30736  -1.77439
H     2.62779  -1.18028  -1.26634
C     2.27463   0.87427  -1.78636
C    -0.83781  -1.31133   3.09339
H     0.07749  -1.89055   3.12941
H    -0.65948  -0.31077   3.47369
H    -1.63876  -1.79159   3.64331
C    -1.59018  -2.92032   0.99690
H    -1.90378  -3.00602  -0.03827
H    -0.64514  -3.43062   1.14094
H    -2.35720  -3.30165   1.66062
O     0.41367   0.97054   1.26863
