43

Pt    0.00000   0.00000   0.00000
S     1.56833  -1.01476  -1.22447
Cl    5.79830   3.34414  -1.62547
Cl    2.71158   7.49814  -0.18814
N    -1.24634   1.08826   1.12636
O    -1.08733   5.21506   1.69906
O     2.78248  -0.22536  -1.09239
O     0.88660   5.43475   0.75707
N    -2.18057   2.83304   2.11546
H    -2.28041   3.81166   2.36675
C    -2.46464   0.69517   1.60990
C    -4.32592   1.70341   2.82776
H    -4.78841   2.55013   3.30903
C     3.41747   3.03963  -0.41854
H     3.55331   1.97066  -0.49784
C     4.14794   5.30745  -0.83446
H     4.89245   5.98614  -1.21797
C     2.24154   3.54059   0.15349
C    -3.07156   1.80466   2.24052
C     4.35101   3.92772  -0.90778
C     1.21487   2.69104   0.65107
H     1.40574   1.61760   0.66068
C     0.03221   3.20620   1.09165
C     2.01475   4.92589   0.21607
C    -0.12789   4.66368   1.20576
C    -4.94694   0.47379   2.76488
H    -5.92281   0.35302   3.20954
C     2.98553   5.80581  -0.27754
C    -3.10693  -0.53888   1.55191
H    -2.62772  -1.37826   1.07025
C     1.99708  -2.73306  -0.82280
H     2.22068  -2.77869   0.23804
H     2.86501  -3.01466  -1.40756
H     1.14116  -3.35841  -1.04779
C    -1.09769   2.37351   1.44381
C     1.24998  -1.22540  -2.99889
H     0.42223  -1.91533  -3.11497
H     2.15250  -1.59926  -3.46812
H     0.98477  -0.25374  -3.40277
C    -4.34887  -0.62718   2.13956
H    -4.88033  -1.56599   2.12155
Cl    0.52358  -1.35374   1.78946
O    -0.36133   0.94818  -1.30111
