45

Zn    0.00000   0.00000   0.00000
N    -0.09423  -1.48865  -1.40401
N    -0.35284  -0.24228  -3.31830
N     1.31614  -1.69730  -3.36770
C     0.31856  -1.16676  -2.59153
C    -1.41091   0.59137  -2.82366
H    -2.00833   0.03283  -2.10587
H    -2.04325   0.88413  -3.66302
H    -1.02388   1.49635  -2.34150
C     0.40995   0.18901  -4.46586
H     0.82762   1.18947  -4.29619
H    -0.22906   0.22051  -5.35331
C     1.50091  -0.87921  -4.56082
H     1.39216  -1.50734  -5.45160
H     2.49915  -0.43217  -4.56437
C     2.50725  -2.34444  -2.86589
H     3.07121  -1.68741  -2.19601
H     3.13267  -2.59652  -3.72129
H     2.25732  -3.26773  -2.34901
C     0.36519  -2.64624  -0.67219
H     1.43884  -2.60716  -0.46302
H     0.12609  -3.56466  -1.22128
Cl   -1.77428   1.10466   0.82884
N     0.09669  -1.48843   1.40414
N     0.35666  -0.24249   3.31850
N    -1.31241  -1.69754   3.36863
C    -0.31534  -1.16677   2.59198
C     1.41373   0.59174   2.82269
H     2.01105   0.03330   2.10477
H     2.04642   0.88546   3.66140
H     1.02568   1.49615   2.34029
C    -0.40513   0.18822   4.46693
H    -0.82300   1.18874   4.29817
H     0.23468   0.21935   5.35379
C    -1.49592  -0.88012   4.56243
H    -1.38611  -1.50875   5.45272
H    -2.49419  -0.43317   4.56734
C    -2.50438  -2.34326   2.86694
H    -3.06789  -1.68520   2.19770
H    -3.12968  -2.59525   3.72244
H    -2.25558  -3.26646   2.34937
C    -0.36328  -2.64596   0.67254
H    -1.43690  -2.60630   0.46336
H    -0.12467  -3.56441   1.22178
O     1.30011   0.81388  -0.60813
