43

Os    0.00000   0.00000   0.00000
Cl   -1.22534   0.52867  -1.88574
S    -0.02562  -2.18148  -0.67344
S     1.90097   0.38591  -1.20293
S     1.31372  -0.31410   1.83978
S    -0.37376   2.17265   0.59418
O     0.99012  -2.45208  -1.68677
O     2.45051   1.67755  -0.77051
O     2.04173  -1.57704   1.66013
O     0.16710   2.47825   1.91549
C    -1.62067  -2.64925  -1.40807
C     0.05466  -3.51679   0.55495
C     1.79744   0.44931  -3.01719
C     3.30378  -0.76764  -1.09541
C     2.60053   0.89949   2.26564
C     0.52935  -0.39834   3.47805
C     0.11046   3.52049  -0.52262
C    -2.14687   2.56520   0.66256
H    -1.79076  -2.00561  -2.26462
H    -1.57291  -3.68769  -1.71178
H    -2.38597  -2.47677  -0.66025
H     0.04233  -4.46540   0.03283
H    -0.80436  -3.40230   1.20486
H     0.97636  -3.39401   1.11216
H     1.51325  -0.54382  -3.34410
H     1.02929   1.16442  -3.28996
H     2.76151   0.74606  -3.41189
H     3.08760  -1.62286  -1.72141
H     4.18625  -0.23001  -1.42179
H     3.40645  -1.08993  -0.06467
H     3.31366   0.39770   2.90908
H     2.12532   1.73960   2.75394
H     3.07505   1.23412   1.34927
H    -0.25379  -1.14752   3.44263
H     1.28185  -0.65817   4.21259
H     0.10024   0.57885   3.66465
H    -0.14181   4.46332  -0.05351
H     1.17947   3.44310  -0.68482
H    -0.42959   3.37366  -1.45009
H    -2.56207   2.36560  -0.31850
H    -2.26301   3.60231   0.95210
H    -2.60202   1.90805   1.39599
O    -1.30516  -0.42569   0.91534
