49

Ag    0.00000   0.00000   0.00000
O    -0.26159   0.24864   2.71702
N    -2.11144   1.90770   1.28033
N    -1.11333   2.88497  -0.33717
C    -1.28883   1.67741   0.23552
C    -2.44307   3.23474   1.35696
H    -3.09109   3.62557   2.11461
C    -1.81478   3.85379   0.33011
H    -1.81064   4.87937   0.02272
C    -0.26164   3.11586  -1.45214
C    -0.74638   2.88489  -2.74150
C     0.10920   3.11076  -3.81124
H    -0.23328   2.92886  -4.81757
C     1.40044   3.55471  -3.60275
H     2.05488   3.71985  -4.44554
C     1.86362   3.77398  -2.31988
H     2.87994   4.10320  -2.17256
C     1.04299   3.56079  -1.22056
C    -2.14101   2.35334  -2.97006
H    -2.70564   2.42013  -2.03477
C    -2.89737   3.15992  -4.02729
H    -2.88497   4.21987  -3.78161
H    -3.93235   2.82854  -4.07338
H    -2.45867   3.02961  -5.01254
C    -2.05398   0.87696  -3.36506
H    -1.50891   0.76242  -4.29834
H    -3.05027   0.45907  -3.48877
H    -1.52911   0.31104  -2.59025
C     1.57445   3.75117   0.18082
H     0.74237   3.70926   0.89074
C     2.26086   5.10774   0.35437
H     3.17369   5.16666  -0.23156
H     2.52203   5.25810   1.39962
H     1.59949   5.91450   0.04449
C     2.53361   2.60579   0.51455
H     3.38287   2.60403  -0.16354
H     2.01959   1.64085   0.41969
H     2.90042   2.70382   1.53372
C    -2.49247   0.90776   2.23758
H    -2.58579  -0.04838   1.71503
H    -3.44719   1.18128   2.69231
C    -1.42364   0.74740   3.32364
H    -1.21929   1.71804   3.80683
H    -1.78955   0.04817   4.09126
C     0.77570  -0.06495   3.61496
H     1.12824   0.83155   4.13950
H     1.57707  -0.48200   3.00983
H     0.44635  -0.80558   4.35258
O     1.13867  -1.18716  -0.12880
