61

Ti    0.00000   0.00000   0.00000
Cl   -1.84571  -1.41023   0.40265
O    -1.14906   1.10405  -0.94952
N    -0.29192  -1.10570  -1.70565
N     1.22226  -1.99645   0.15807
C    -1.57362   0.73637  -2.11855
C    -2.43093   1.42452  -2.96306
H    -2.82707   2.38459  -2.66990
C    -2.77499   0.86588  -4.19217
H    -3.44400   1.45335  -4.79796
C    -2.32897  -0.35703  -4.67588
C    -1.45101  -1.10160  -3.84609
C    -1.10081  -0.52906  -2.58925
C    -0.84962  -2.36769  -4.08270
H    -1.03540  -2.90243  -4.99867
C    -0.01929  -2.94781  -3.16098
H     0.43081  -3.90992  -3.35308
C     0.25404  -2.28503  -1.94732
C    -2.77885  -0.85371  -6.04772
C    -3.56090  -2.16885  -5.90066
H    -2.98826  -2.95412  -5.42148
H    -3.87256  -2.52385  -6.88079
H    -4.45165  -1.99656  -5.30013
C    -1.56076  -1.01237  -6.97193
H    -1.07609  -0.04708  -7.10265
H    -1.88257  -1.36862  -7.94830
H    -0.82002  -1.70267  -6.58591
C    -3.72485   0.12992  -6.75208
H    -4.63816   0.28193  -6.18234
H    -4.00361  -0.28272  -7.71954
H    -3.24385   1.08879  -6.92824
C     1.09525  -2.74327  -0.87281
H     1.60059  -3.70913  -0.95912
C     2.05635  -2.45799   1.20861
C     1.50999  -3.22640   2.24372
C     2.32989  -3.59699   3.30145
H     1.90887  -4.17619   4.10996
C     3.66523  -3.24290   3.32803
H     4.28651  -3.53029   4.16253
C     4.20661  -2.53921   2.26876
H     5.25720  -2.28889   2.26809
C     3.42249  -2.14872   1.19185
C     4.04421  -1.44953   0.02162
H     4.20441  -2.15872  -0.79183
H     5.00993  -1.03327   0.29693
H     3.40737  -0.65370  -0.36298
C     0.08552  -3.68959   2.20149
H    -0.57652  -2.93799   1.77382
H    -0.26084  -3.94491   3.20000
H     0.00744  -4.58458   1.58214
C    -0.34264   1.99856   1.40432
H    -0.94808   2.85605   1.14254
C     1.03208   1.85280   1.15351
H     1.67495   2.59022   0.69235
C     1.45482   0.62804   1.71642
H     2.48233   0.30400   1.81355
C     0.32943   0.01274   2.30602
H     0.34020  -0.86756   2.93462
C    -0.78222   0.86139   2.10333
H    -1.77631   0.70442   2.49972
O     1.18879   0.42980  -1.06045
