44

Pd    0.00000   0.00000   0.00000
Cl   -0.91481  -1.00996  -1.81663
P     1.07343   0.50560   1.89027
N     1.31157   0.97278  -1.17433
C     0.59160   1.01964   3.55238
C     0.03788   0.09116   4.42783
C    -0.33303   0.48807   5.69950
C    -0.16139   1.80466   6.09644
C     0.37239   2.73361   5.21749
C     0.74344   2.34598   3.94331
C     2.17167  -0.97785   2.10810
C     3.22535  -0.46392   3.05787
C     3.54282   0.79977   2.76122
C     2.74210   1.27678   1.57526
C     3.19305   0.42790   0.34573
C     2.78338  -1.02716   0.68640
C     3.78291  -1.36405   4.10355
C     4.55477   1.69835   3.38353
C     2.63079   0.99044  -0.93879
C     3.49849   1.58794  -1.84800
C     3.00436   2.17732  -2.99921
C     1.63498   2.16932  -3.20926
C     0.82592   1.55330  -2.27200
H    -0.11548  -0.92482   4.09494
H    -0.76177  -0.22983   6.38279
H    -0.45260   2.11103   7.09025
H     0.49434   3.76185   5.52556
H     1.14859   3.06783   3.24702
H     1.69729  -1.91595   2.39581
H     2.80291   2.34798   1.38171
H     4.28355   0.49102   0.27248
H     3.65121  -1.68799   0.66343
H     2.03624  -1.41740  -0.03141
H     2.98884  -1.67832   4.78029
H     4.55980  -0.87418   4.68274
H     4.20039  -2.25951   3.64357
H     4.06987   2.59609   3.76683
H     5.29292   2.00816   2.64318
H     5.06969   1.20737   4.20380
H     4.55976   1.58536  -1.65105
H     3.67388   2.63473  -3.71131
H     1.19836   2.62238  -4.08414
H    -0.24975   1.50149  -2.40616
O    -0.94686  -0.78945   1.09669
