45

Zr    0.00000   0.00000   0.00000
Cl   -1.34792  -0.57331   1.82519
C     0.16555  -1.65310  -1.85702
C     1.48346  -1.14740  -1.60992
C     1.88606  -1.60909  -0.33657
C     0.82232  -2.30121   0.27623
C    -0.26128  -2.35082  -0.66050
C    -1.53129  -2.98015  -0.60749
C    -2.31830  -2.91132  -1.73355
C    -1.88288  -2.28512  -2.91294
C    -0.65658  -1.66898  -3.01087
C    -0.20176  -1.04272  -4.29735
C    -0.58510   0.44801  -4.36454
C     0.08811   1.23659  -3.27879
C     1.30593   1.84164  -3.48823
C     1.94212   2.61336  -2.50213
C     1.37144   2.84481  -1.27211
C     0.11786   2.23520  -1.01003
C    -0.51175   1.38921  -2.00432
C    -1.75882   0.94233  -1.45774
C    -1.92963   1.57924  -0.20788
C    -0.77909   2.33080   0.10378
C    -1.94840  -3.73760   0.61544
C     1.99778   3.75047  -0.25685
H     2.13994  -0.68416  -2.33648
H     2.88041  -1.49365   0.08181
H     0.86506  -2.81217   1.23120
H    -3.28740  -3.38855  -1.73206
H    -2.52608  -2.31800  -3.78096
H    -0.66718  -1.56059  -5.13805
H     0.88136  -1.13648  -4.39574
H    -0.28639   0.84125  -5.33803
H    -1.66915   0.54113  -4.27653
H     1.78107   1.74755  -4.45448
H     2.89140   3.07084  -2.73982
H    -2.53132   0.39523  -1.98444
H    -2.83145   1.53788   0.39384
H    -0.65359   2.96722   0.97215
H    -1.95452  -3.07742   1.48265
H    -1.24646  -4.54833   0.81201
H    -2.94186  -4.15932   0.48663
H     2.17613   3.20786   0.67110
H     1.33301   4.58573  -0.03768
H     2.94285   4.14307  -0.62210
O     1.15370   0.56127   1.03752
