57

Hg    0.00000   0.00000   0.00000
Br   -0.80689  -0.40623   2.26207
N    -1.23567   2.11516  -0.60725
C    -2.32909   2.07909  -1.35452
H    -2.80189   1.11089  -1.46147
C    -2.86245   3.20057  -1.96905
H    -3.75767   3.15033  -2.56856
C    -2.20324   4.40580  -1.80378
P    -2.84138   5.92256  -2.58104
O    -4.10084   5.80936  -3.31663
O    -1.55526   6.34636  -3.42122
C    -1.74458   7.16456  -4.57509
H    -2.60184   6.78550  -5.14104
H    -0.83294   7.04287  -5.16596
C    -1.97064   8.61772  -4.19986
H    -2.03577   9.22516  -5.09866
H    -1.15269   8.97871  -3.58126
H    -2.89906   8.70852  -3.64016
O    -2.86252   7.01636  -1.39758
C    -4.08523   7.22516  -0.70454
H    -3.96918   8.18313  -0.19076
H    -4.90045   7.29475  -1.43200
C    -4.36793   6.10495   0.28133
H    -5.26763   6.32931   0.84770
H    -3.53533   5.98388   0.97097
H    -4.51519   5.17160  -0.26022
C    -1.05810   4.45113  -1.02932
H    -0.53540   5.38781  -0.92713
C    -0.60205   3.27977  -0.42794
C     0.60043   3.27996   0.42816
N     1.23435   2.11549   0.60725
C     2.32821   2.07968   1.35390
H     2.80185   1.11179   1.45979
C     2.86194   3.20142   1.96765
H     3.75783   3.15146   2.56613
C     2.20225   4.40650   1.80290
P     2.84078   5.92314   2.57999
O     4.09961   5.80906   3.31648
O     1.55443   6.34803   3.41919
C     1.74359   7.16579   4.57334
H     2.60060   6.78638   5.13943
H     0.83175   7.04406   5.16393
C     1.97000   8.61899   4.19846
H     2.03672   9.22582   5.09755
H     1.15138   8.98077   3.58116
H     2.89780   8.70943   3.63760
O     2.86319   7.01676   1.39647
C     4.08673   7.22606   0.70512
H     3.97093   8.18405   0.19132
H     4.90092   7.29589   1.43369
C     4.37085   6.10592  -0.28029
H     5.27152   6.33014  -0.84510
H     3.53935   5.98514  -0.97124
H     4.51704   5.17258   0.26151
C     1.05646   4.45142   1.02939
H     0.53321   5.38785   0.92789
O     0.54654  -0.27500  -1.53237
