31

Zn    0.00000   0.00000   0.00000
Br   -0.08180   1.98889  -1.27890
N     1.18737   0.86983   1.74046
N     1.97265  -0.86737  -0.12488
N    -0.09264  -1.47139  -1.83205
H     0.18794  -0.90398  -2.63412
C     2.72806  -0.71074   0.87473
H     3.66596  -1.25812   1.00101
C     2.35030   0.23459   1.91452
C     3.15362   0.45634   3.02989
H     4.08515  -0.07707   3.14087
C     2.73017   1.36757   3.98362
H     3.32957   1.55998   4.86060
C     1.52590   2.02442   3.79014
H     1.15898   2.74171   4.50624
C     0.78814   1.73872   2.64818
H    -0.15808   2.22755   2.45814
C     2.24806  -1.77578  -1.18856
H     3.01952  -2.51154  -0.92634
H     2.60179  -1.17864  -2.03832
C     0.93995  -2.46880  -1.58113
H     1.11738  -3.11386  -2.45422
H     0.60239  -3.09755  -0.75130
C    -1.38451  -2.08293  -2.15492
H    -1.70816  -2.66266  -1.28625
H    -1.27995  -2.77213  -3.00694
C    -2.41863  -1.01629  -2.47610
H    -2.57451  -0.36659  -1.61651
H    -3.36727  -1.48323  -2.72501
H    -2.09872  -0.40283  -3.31618
O    -0.78512  -1.03254   1.01979
