54

C     1.97975  -1.38144   0.50468
C     2.43186  -0.21127  -0.19786
C     2.20312   0.95150   0.56803
C     1.05099   1.27515   2.89247
C     0.63457   0.58126   4.01419
C     0.67680  -0.83617   4.05430
C     1.11879  -1.57987   2.97327
C     1.49445  -0.90817   1.78606
C     1.56571   0.53755   1.79654
C     3.21244  -0.17311  -1.48388
H     2.86650   0.64193  -2.12401
H     3.14601  -1.10930  -2.02705
H     4.26809   0.00476  -1.26308
C     2.79435   2.29895   0.24531
H     3.70101   2.17024  -0.34519
H     3.06287   2.82416   1.15869
H     2.10500   2.92555  -0.32604
C     0.89178   2.76857   2.77866
H    -0.00734   3.08781   3.30007
H     0.78071   3.05424   1.73461
H     1.74283   3.30164   3.20509
C     0.14662   1.32883   5.22460
H     0.53591   2.34152   5.24348
H     0.46529   0.83540   6.13839
H    -0.94266   1.37798   5.22423
C     0.20025  -1.53381   5.29860
H    -0.01937  -2.57778   5.10669
H    -0.71072  -1.06633   5.66277
H     0.95112  -1.48088   6.08778
C     1.33364  -3.06229   3.09471
H     1.82019  -3.28805   4.04168
H     1.98133  -3.40621   2.29490
H     0.39685  -3.61522   3.05642
C     2.78867  -3.59741  -1.65377
H     3.78306  -3.33059  -1.31255
H     2.68080  -3.25750  -2.67842
H     2.73268  -4.68006  -1.67143
C     0.59880  -4.43475   0.28088
H     0.16346  -5.03312  -0.51419
H    -0.19644  -4.17894   0.97067
H     1.31207  -5.06180   0.80258
C     0.01159  -1.97992  -1.37900
C     0.13932  -0.89260  -2.29361
H     0.95824  -0.74248  -2.98606
C    -1.08642  -0.19805  -2.34245
H    -1.33356   0.60617  -3.02467
C    -1.97067  -0.80326  -1.42757
H    -3.00902  -0.53434  -1.27318
C    -1.29821  -1.88818  -0.82672
H    -1.74829  -2.59780  -0.14137
Si    1.42126  -2.90102  -0.50519
Cl   -0.42942   2.23502  -0.56421
Zr    0.00000   0.00000   0.00000
O    -1.14377  -0.03367   1.18877
