37

Ni    0.00000   0.00000   0.00000
S    -1.23196   1.65926   1.11477
N    -1.74075   0.36139  -1.49195
C    -0.75086   3.11409   0.09927
H    -1.26479   3.04384  -0.85892
H    -1.07234   4.01434   0.62686
C    -2.87773   1.29007   0.44515
H    -3.24681   0.50192   1.10762
H    -3.50275   2.17772   0.55683
C    -2.88892   0.77594  -0.96698
C    -4.08974   0.70950  -1.66542
H    -5.00269   1.05982  -1.20810
C    -4.08753   0.17617  -2.94193
H    -5.00639   0.10571  -3.50524
C    -2.88874  -0.26724  -3.47968
H    -2.84551  -0.69377  -4.46882
C    -1.73955  -0.14962  -2.71827
H    -0.77565  -0.47683  -3.08620
Cl    1.05880  -1.46204  -1.06365
C     0.75106   3.11406  -0.09899
S     1.23203   1.65929  -1.11464
N     1.74073   0.36118   1.49203
C     2.88890   0.77587   0.96717
C     2.87776   1.28996  -0.44498
H     3.24671   0.50172  -1.10742
H     3.50290   2.17750  -0.55670
C     4.08965   0.70966   1.66576
H     5.00259   1.06010   1.20854
C     4.08736   0.17640   2.94230
H     5.00616   0.10613   3.50573
C     2.88857  -0.26716   3.47993
H     2.84529  -0.69365   4.46909
C     1.73946  -0.14977   2.71837
H     0.77556  -0.47712   3.08619
H     1.26497   3.04372   0.85921
H     1.07257   4.01434  -0.62650
O    -0.83386  -1.15143   0.83749
