61

Au    0.00000   0.00000   0.00000
C     4.03695  -5.07294   2.83030
C     4.44418  -6.24864   3.44543
H     4.77624  -7.09618   2.86421
C     4.40992  -6.29215   4.82278
H     4.72112  -7.19078   5.33385
C     3.97979  -5.19562   5.57511
H     3.96841  -5.27422   6.65192
C     3.57364  -4.02680   4.97249
H     3.24050  -3.18349   5.55805
C     3.60026  -3.95288   3.58029
C     3.26948  -2.93676   2.63468
C     2.74545  -1.55376   2.84990
H     3.29480  -1.05161   3.64798
H     1.69275  -1.59526   3.14509
C     2.88030  -0.75579   1.54420
H     2.27274   0.15044   1.57749
H     3.92859  -0.48470   1.38324
C     3.50014  -3.46122   1.39384
C     3.28757  -2.71772   0.11724
H     4.25471  -2.34974  -0.26114
C     2.50134  -3.44336  -0.97997
H     2.32301  -4.48302  -0.71228
H     3.06383  -3.41837  -1.91065
C     1.17775  -2.65044  -1.11362
C     1.32759  -1.48037  -0.21423
C     0.86774  -2.15618  -2.54985
H     0.12171  -1.36404  -2.42612
C     2.09648  -1.53627  -3.17195
H     2.64454  -2.16427  -3.86375
C     2.50610  -0.30551  -2.93031
H     1.96913   0.34867  -2.26166
H     3.38824   0.10284  -3.39395
C     0.29513  -3.18503  -3.49027
C    -0.91194  -2.91999  -4.12774
H    -1.43049  -1.99567  -3.91753
C    -1.45163  -3.81423  -5.03473
H    -2.39196  -3.58930  -5.51587
C    -0.78531  -4.99077  -5.33021
H    -1.20268  -5.69084  -6.03833
C     0.42710  -5.25738  -4.71914
H     0.96125  -6.16748  -4.95200
C     0.96375  -4.36086  -3.81096
H     1.91371  -4.58985  -3.35322
C    -2.00858  -2.95382  -0.87984
H    -2.78916  -3.34754  -0.23653
H    -2.25452  -3.23103  -1.89931
H    -2.04414  -1.87125  -0.80456
C    -0.21539  -5.49809  -0.85635
H    -1.13939  -5.99483  -0.57868
H     0.58983  -6.02081  -0.34864
H    -0.08503  -5.62913  -1.92494
C    -0.16481  -3.59393   1.55362
H    -0.36958  -2.59656   1.93023
H     0.82271  -3.88565   1.89904
H    -0.87989  -4.26782   2.01471
N     3.96374  -4.74729   1.50221
H     4.23781  -5.33932   0.73726
N     2.44858  -1.56420   0.43385
Si   -0.33065  -3.66112  -0.34482
O    -1.10827   1.20966   0.17600
