31

Pt    0.00000   0.00000   0.00000
Cl   -0.64518  -2.13637   0.09870
N    -1.90350   0.70427  -0.28962
N    -1.21939   3.04982  -0.44991
N     0.69423   1.82497  -0.02666
H     1.69358   1.84358   0.18956
C    -2.96834  -0.09576  -0.37940
H    -2.77378  -1.14573  -0.20207
C    -4.24734   0.35216  -0.69069
H    -5.04793  -0.36744  -0.74252
C    -4.48149   1.69002  -0.94042
H    -5.45976   2.06258  -1.20010
C    -3.38882   2.54632  -0.84433
C    -3.20326   3.94742  -1.02977
H    -3.95866   4.65251  -1.31101
C    -1.89640   4.20918  -0.79305
H    -1.37268   5.14155  -0.86145
C    -2.12382   2.00588  -0.50228
C     0.12810   2.97386  -0.15097
C     0.88842   4.22367   0.03370
C     2.12040   4.36754  -0.60314
H     2.46995   3.59315  -1.26993
C     2.87766   5.50588  -0.40104
H     3.82481   5.61439  -0.90642
C     2.42511   6.50031   0.45094
H     3.02041   7.38578   0.61191
C     1.21208   6.35266   1.10390
H     0.86480   7.11818   1.78090
C     0.44246   5.22274   0.89811
H    -0.49042   5.10003   1.42883
O     1.57042  -0.46045   0.21037
