31

Re    0.00000   0.00000   0.00000
Cl    1.36970  -0.01351  -1.95412
O     1.28633   0.01957   1.03737
O    -1.40083  -0.02063  -1.06708
C    -2.61502  -0.05263  -1.67966
N     0.01085  -2.17160   0.02755
C     0.14615  -2.82351   1.18177
C     0.16079  -4.20489   1.25045
C     0.03265  -4.93929   0.08177
C    -0.10080  -4.25414  -1.11560
C    -0.10618  -2.87091  -1.09929
N    -0.02252   2.17062  -0.02324
C    -0.14794   2.83949  -1.16763
C    -0.17130   4.22178  -1.21741
C    -0.05881   4.93841  -0.03639
C     0.07985   4.23549   1.15039
C     0.09431   2.85291   1.11527
H    -2.97172   0.96869  -1.87594
H    -3.34892  -0.55568  -1.03273
H    -2.55285  -0.58972  -2.63761
H     0.23606  -2.21124   2.06897
H     0.27085  -4.69078   2.20645
H     0.04094  -6.01850   0.10247
H    -0.19514  -4.77878  -2.05299
H    -0.17771  -2.30258  -2.01720
H    -0.20208   2.24737  -2.07183
H    -0.27130   4.72144  -2.16784
H    -0.07380   6.01783  -0.04196
H     0.17582   4.74698   2.09451
H     0.19303   2.26408   2.01727
O    -1.08117   0.00019   1.24642
