52

Tc    0.00000   0.00000   0.00000
Cl   -0.67271  -1.98032   0.98713
P     1.34498   1.94906  -0.68834
N    -0.66360  -0.33268  -1.56652
N    -1.53611   1.04456   0.56198
N    -1.61217   1.59822   1.72979
N     0.43656   0.56257   1.96908
O    -1.20744  -0.48038  -2.59371
C    -0.55995   1.30095   2.51827
C    -0.50584   1.74567   3.84953
C     0.57465   1.39425   4.61829
C     1.58089   0.60804   4.05307
C     1.46687   0.22016   2.73614
C     2.46970   1.79607  -2.10942
C     2.23716   0.83138  -3.08197
C     3.05834   0.75901  -4.19301
C     4.10761   1.65044  -4.34173
C     4.33387   2.62123  -3.37921
C     3.51596   2.70072  -2.26776
C     0.45761   3.46378  -1.20014
C     0.96937   4.74490  -1.02242
C     0.27056   5.84042  -1.49648
C    -0.93388   5.66817  -2.15872
C    -1.43964   4.39336  -2.35390
C    -0.74630   3.29575  -1.87777
C     2.39266   2.49294   0.68547
C     3.66529   1.95635   0.85690
C     4.40197   2.27950   1.98260
C     3.87200   3.12364   2.94473
C     2.59704   3.64411   2.78630
C     1.85475   3.32701   1.66441
H    -2.37213   1.28807   0.02525
H    -1.32460   2.33637   4.22442
H     0.64469   1.71147   5.64778
H     2.43678   0.29997   4.63035
H     2.22777  -0.38726   2.26452
H     1.42879   0.12575  -2.95809
H     2.87982   0.00218  -4.94156
H     4.75104   1.58930  -5.20670
H     5.15096   3.31835  -3.49412
H     3.69617   3.45852  -1.51793
H     1.90848   4.88944  -0.50745
H     0.66965   6.83326  -1.34956
H    -1.47593   6.52715  -2.52454
H    -2.37384   4.25482  -2.87695
H    -1.13084   2.29576  -2.03252
H     4.06062   1.27666   0.11579
H     5.39011   1.86409   2.11261
H     4.44858   3.37126   3.82352
H     2.17728   4.29222   3.54151
H     0.85217   3.71870   1.54646
O     1.52251  -0.60515  -0.19560
