29

Cd    0.00000   0.00000   0.00000
C    -1.17554  -2.52854  -1.59952
C     0.93514  -2.10180  -2.19706
C    -2.46432   1.98281  -0.33589
C    -0.99832  -3.56580  -2.44630
H    -1.68831  -4.33622  -2.71990
C    -0.96239   2.37158  -1.94443
C    -1.83805   3.35254  -2.25309
H    -1.78832   4.07550  -3.04006
C     0.30615   2.05651  -2.65878
H     0.47454   2.76832  -3.46167
H     0.25793   1.04869  -3.07469
H     1.14564   2.09229  -1.96236
C    -2.41485  -2.20495  -0.83914
H    -3.17423  -2.96137  -1.01480
H    -2.79755  -1.23123  -1.14955
H    -2.19531  -2.15453   0.22870
Cl   -1.02058  -0.41413   2.09101
N    -1.32495   1.60729  -0.85913
N    -0.07677  -1.71122  -1.46463
N    -3.07499   1.36140   0.67482
H    -2.51500   0.70526   1.24402
H    -3.86195   1.81090   1.11088
N     2.09034  -1.44266  -2.30603
H     2.30438  -0.72732  -1.59149
H     2.86207  -1.89740  -2.76341
S    -3.18728   3.35139  -1.15952
S     0.60110  -3.55266  -3.12297
O     1.61154   0.35264   0.03306
