45

Hg    0.00000   0.00000   0.00000
I    -0.25450   2.58301  -0.29438
N     2.33446  -0.16311   0.81840
N     0.16345  -0.19740   2.46525
C     3.37832  -0.15620   0.01685
H     3.17238  -0.04958  -1.04101
C     4.69047  -0.26106   0.46559
H     5.50495  -0.22143  -0.24065
C     4.93950  -0.38316   1.81934
C     6.32473  -0.44284   2.30721
C     7.21187  -1.36969   1.76612
H     6.86277  -2.06416   1.01585
C     8.52160  -1.42037   2.20598
H     9.19910  -2.14987   1.78830
C     8.96446  -0.53637   3.17608
H     9.98859  -0.57404   3.51522
C     8.09223   0.40001   3.70620
H     8.43662   1.09821   4.45445
C     6.77786   0.44623   3.27933
H     6.10345   1.19070   3.67779
C     3.82823  -0.43571   2.69585
C     3.96513  -0.67121   4.09211
H     4.95228  -0.85871   4.48595
C     2.88654  -0.69088   4.90985
H     3.00365  -0.89417   5.96327
C     1.57401  -0.47607   4.40505
C     0.42932  -0.46484   5.23895
C     0.52706  -0.55370   6.70294
C     1.31703   0.34096   7.42134
H     1.86220   1.11230   6.89630
C     1.37561   0.26495   8.80075
H     1.98440   0.96758   9.34996
C     0.65613  -0.70705   9.47614
H     0.70843  -0.76808  10.55263
C    -0.13485  -1.59687   8.76817
H    -0.69925  -2.35421   9.29115
C    -0.20758  -1.51656   7.38988
H    -0.81734  -2.21513   6.83556
C    -0.80942  -0.35720   4.63618
H    -1.70978  -0.34875   5.23033
C    -0.88980  -0.22682   3.25389
H    -1.85491  -0.13051   2.77207
C     1.38614  -0.32294   3.01270
C     2.53491  -0.30359   2.14147
O    -0.28813  -1.57424  -0.40158
