45

Co    0.00000   0.00000   0.00000
P    -1.62211   0.79898  -1.24950
P     1.54658  -0.78401   1.35112
N     1.09311   1.71407  -0.28587
N     2.79532   3.76808  -1.09673
C     0.94887  -0.58122  -1.50948
H     0.86114  -1.55089  -1.99412
C     1.81591   0.30912  -2.02079
H     2.43930   0.12744  -2.88938
C     1.90468   1.57078  -1.35877
C     2.74939   2.62433  -1.74070
H     3.40150   2.51843  -2.59754
C     1.99152   3.89393  -0.04366
H     2.03078   4.83482   0.48463
C     1.14576   2.87630   0.36051
H     0.50342   3.00631   1.21949
C    -0.89733  -1.78887   0.00269
H    -0.17994  -2.60767   0.10592
H    -1.44235  -1.97621  -0.92653
H    -1.60856  -1.86538   0.82566
C    -3.34644   0.32546  -0.86593
H    -4.01323   0.77846  -1.60018
H    -3.60566   0.67724   0.13104
H    -3.45276  -0.75687  -0.89595
C    -1.57335   0.42891  -3.04491
H    -2.43755   0.86965  -3.54195
H    -1.58052  -0.64965  -3.19290
H    -0.65886   0.83329  -3.47617
C    -1.80006   2.62267  -1.30693
H    -2.65945   2.88132  -1.92590
H    -0.90370   3.07589  -1.72974
H    -1.95411   3.00600  -0.29908
C     1.04192  -1.87241   2.73126
H     1.92923  -2.18694   3.28145
H     0.52329  -2.74762   2.34575
H     0.37181  -1.32985   3.39555
C     2.88900  -1.79301   0.61453
H     3.57675  -2.12576   1.39205
H     3.42964  -1.19983  -0.12150
H     2.45917  -2.65966   0.11509
C     2.54597   0.44930   2.26794
H     3.24236  -0.06989   2.92695
H     1.88924   1.08151   2.86418
H     3.10744   1.07172   1.57149
O    -0.79119   0.58947   1.32252
