61

Pd    0.00000   0.00000   0.00000
I    -2.19980   0.32538  -1.40798
N     0.28937   2.85050  -0.50379
N     1.61345   1.72912  -1.82863
N    -0.83169  -1.60279   0.88002
O     0.56133  -0.20721  -3.85914
H    -0.23233   0.19340  -3.47348
C     0.72659   1.61930  -0.82131
C     0.89874   3.78235  -1.31472
C     0.72830   4.31610   2.08851
C     1.05374   5.45563   2.82706
C     1.75736   3.06104  -2.16427
C    -0.45668   4.30062   1.34829
C     0.79919   5.16314  -1.39885
H     0.15003   5.72162  -0.74586
C    -1.36098   5.36983   1.39615
C    -0.80286  -2.82222   0.35573
H    -0.27110  -2.93733  -0.58745
C     2.35621   0.63654  -2.42043
H     3.10620   0.27395  -1.70764
H     2.86100   1.02151  -3.30723
C     1.57855   5.79473  -2.34798
H     1.52716   6.86849  -2.44078
C    -0.75583   3.10960   0.47258
H    -0.86675   2.19133   1.08997
H    -1.69164   3.25443  -0.07238
C     0.16767   6.51833   2.84341
H     0.42255   7.39940   3.41570
C     2.33968   5.55012   3.59161
H     2.34259   4.85642   4.43255
H     2.47424   6.55543   3.98272
H     3.18832   5.30919   2.95370
C     2.43019   5.08083  -3.18870
H     3.02135   5.61510  -3.91624
C     2.53655   3.70590  -3.11236
H     3.19940   3.16468  -3.76847
C    -1.04010   6.49146   2.16207
C     1.46381  -0.54614  -2.84581
H     2.11944  -1.32106  -3.25475
H     0.94337  -0.97488  -1.95295
C    -1.41539  -3.90054   0.96931
H    -1.37103  -4.87613   0.51259
C     1.65213   3.13631   2.09960
H     2.40109   3.21624   1.30999
H     1.11053   2.20062   1.96061
H     2.18051   3.06680   3.04600
C    -1.46437  -1.40031   2.03100
H    -1.45584  -0.37993   2.42131
C    -2.65678   5.31217   0.63242
H    -2.47886   5.26961  -0.44277
H    -3.26651   6.18580   0.83044
H    -3.23635   4.43504   0.91786
C    -2.07917  -3.69724   2.16889
H    -2.56837  -4.51667   2.67270
C    -1.95286   7.67979   2.26286
H    -2.14621   8.11179   1.28160
H    -1.50010   8.44637   2.88661
H    -2.90688   7.40114   2.70923
C    -2.10322  -2.42088   2.71066
H    -2.60741  -2.21698   3.64176
O     1.42606  -0.37079   0.74254
