11

Au    0.00000   0.00000   0.00000
S    -1.36458   1.85543  -0.51163
C    -0.43384   3.26455   0.16482
C    -2.68637   1.76113   0.73466
H    -1.06051   4.14966   0.10377
H    -0.14489   3.06495   1.19156
H     0.44868   3.39282  -0.45303
H    -3.28790   2.66293   0.66534
H    -3.29212   0.89336   0.49533
H    -2.25915   1.65605   1.72655
O     0.95365  -1.28614   0.39863
