63

Pd    0.00000   0.00000   0.00000
S    -2.19034  -0.77589  -0.07597
N    -0.68015   1.38152  -1.36923
P     0.69548  -1.56012   1.44444
N    -2.01069   1.40077  -1.66080
N    -4.06896   0.40019  -1.44155
H    -4.59716  -0.26691  -0.90007
C     2.24685  -1.49033   2.38350
C     0.12695   2.17734  -1.99353
H     1.16661   2.05411  -1.69747
C    -0.57827  -1.68650   2.73807
C     0.51009  -3.17138  -0.76970
H     0.18839  -2.24088  -1.25624
C     0.83212  -3.15400   0.58526
C     1.29093  -4.31255   1.20517
H     1.58825  -4.28498   2.24477
C    -2.76120   0.47350  -1.13629
C    -1.13589  -0.45948   3.10097
H    -0.79180   0.44996   2.59257
C    -1.02279  -2.85539   3.33790
H    -0.61269  -3.80903   3.04001
O    -2.41091   3.69438  -2.79426
H    -2.38451   2.85837  -2.24630
C    -0.04986   3.17071  -3.03678
C     1.13371   3.50683  -3.71957
H     2.04639   3.00194  -3.43730
C     3.43212  -1.74693   1.69863
H     3.39406  -1.99526   0.64627
C    -5.31338   2.53100  -1.32723
H    -4.47808   3.04909  -0.86479
H    -5.86317   3.24173  -1.93675
H    -5.97044   2.15580  -0.54535
C    -2.11577  -0.40245   4.07252
H    -2.54746   0.54652   4.35477
C     0.61205  -4.34729  -1.49087
H     0.36217  -4.36219  -2.54132
C    -4.80668   1.38492  -2.19953
H    -4.15246   1.77314  -2.98080
H    -5.64910   0.87161  -2.67046
C     4.64227  -1.66298   2.35832
H     5.56078  -1.85626   1.82438
C     2.28442  -1.13759   3.72703
H     1.36637  -0.92463   4.25737
C     1.38624  -5.48599   0.47977
H     1.73750  -6.38778   0.95966
C    -2.01261  -2.79249   4.30488
H    -2.36641  -3.70191   4.76820
C     1.16029   4.43476  -4.73292
H     2.08594   4.65588  -5.24169
C    -1.22995   3.85593  -3.40119
C     3.50103  -1.05896   4.38233
H     3.52928  -0.78614   5.42720
C     4.67779  -1.32049   3.70139
H     5.62508  -1.25068   4.21534
C    -2.55304  -1.57272   4.67544
H    -3.32537  -1.53287   5.42930
C     1.04118  -5.50556  -0.86288
H     1.11948  -6.42490  -1.42406
C    -0.01109   5.09356  -5.08729
H    -0.00425   5.83251  -5.87445
C    -1.18185   4.80730  -4.42435
H    -2.10224   5.31517  -4.66833
O     1.54277   0.57948   0.08092
