64

Mn    0.00000   0.00000   0.00000
P     0.89113   0.23679   2.06473
P     1.74823   1.33345  -0.52943
O    -1.96844   2.14980   0.22076
O    -2.00125  -1.93924   0.90597
O    -0.73518  -0.42889  -2.80448
C    -1.18824   1.30657   0.13738
C    -1.19036  -1.20753   0.54768
C    -0.42178  -0.28231  -1.70840
C     2.65797   0.66078   1.95139
C     3.58019   0.48396   2.97076
C     4.90264   0.84374   2.76097
C     5.30268   1.37155   1.54436
C     4.38687   1.54432   0.51787
C     3.06253   1.19020   0.72202
C     0.21738   1.63749   3.01995
C    -1.15370   1.58903   3.26582
C    -1.77944   2.62752   3.92518
C    -1.04177   3.72856   4.33427
C     0.32030   3.78006   4.09432
C     0.95380   2.73737   3.44014
C     0.82681  -1.08006   3.31724
C     0.67983  -2.41212   2.94563
C     0.64024  -3.40150   3.91176
C     0.74733  -3.07157   5.25191
C     0.88674  -1.74506   5.62807
C     0.92214  -0.75052   4.66921
C     1.35730   3.11342  -0.49485
C     1.88532   4.01983   0.41491
C     1.44770   5.33327   0.40944
C     0.49046   5.74601  -0.50092
C    -0.03344   4.84572  -1.41700
C     0.39276   3.53319  -1.40965
C     2.63541   1.21093  -2.11178
C     3.32058   2.31968  -2.60828
C     4.00965   2.22882  -3.80278
C     4.01670   1.04003  -4.51504
C     3.32982  -0.05974  -4.03010
C     2.64101   0.02190  -2.83319
H     3.27292   0.05472   3.91417
H     5.62600   0.69946   3.54994
H     6.33717   1.63892   1.38677
H     4.70405   1.93657  -0.43827
H    -1.71686   0.72361   2.93109
H    -2.84174   2.58596   4.11425
H    -1.53090   4.54702   4.84128
H     0.89507   4.63589   4.41798
H     2.02103   2.77598   3.26859
H     0.60199  -2.68040   1.90159
H     0.52431  -4.43308   3.61465
H     0.71686  -3.84517   6.00486
H     0.96325  -1.48296   6.67351
H     1.01034   0.28530   4.96959
H     2.64310   3.70470   1.11912
H     1.85676   6.03613   1.12086
H     0.14974   6.77075  -0.49750
H    -0.77926   5.16787  -2.12830
H    -0.01374   2.81264  -2.11213
H     3.30161   3.25581  -2.06570
H     4.53953   3.09102  -4.18137
H     4.55437   0.97445  -5.44940
H     3.32788  -0.98605  -4.58494
H     2.11250  -0.84345  -2.45919
O     1.28471  -1.03537   0.00539
