31

Pd    0.00000   0.00000   0.00000
Cl    0.97677  -1.03949  -1.79520
N    -1.65177   0.19703  -1.00948
C    -1.88782   1.25640  -1.78728
C    -3.07852   1.36679  -2.49413
H    -3.25223   2.22962  -3.11791
C    -4.02951   0.36622  -2.38878
H    -4.96046   0.43572  -2.93024
C    -3.76482  -0.72606  -1.57558
H    -4.47845  -1.52655  -1.46577
C    -2.55847  -0.77085  -0.90142
H    -2.30309  -1.60774  -0.24958
C    -0.80354   2.28420  -1.83805
H    -0.61869   2.65747  -0.82218
H    -1.07251   3.11526  -2.48405
H     0.11408   1.81374  -2.21417
N     1.59928  -0.32912   1.05834
C     2.60765   0.54432   1.11480
C     3.73661   0.27663   1.87863
H     4.54183   0.99374   1.91263
C     3.81478  -0.90986   2.58765
H     4.68466  -1.13481   3.18548
C     2.75634  -1.80373   2.51582
H     2.77739  -2.73858   3.05222
C     1.66342  -1.47218   1.73650
H     0.80617  -2.14122   1.64668
C     2.43303   1.79623   0.31680
H     2.28754   1.52890  -0.73814
H     3.29613   2.44982   0.40727
H     1.53908   2.32320   0.67436
O    -0.69253   0.77416   1.28202
