31

Pd    0.00000   0.00000   0.00000
Cl    1.53112   0.00962  -1.63184
S     1.69707  -0.31827   1.58260
S    -1.58148   0.02685   1.70146
S    -1.35600   0.73047   4.61812
S     1.69506  -0.26265   4.59444
C     2.28789   1.34123   1.37419
C     3.06901   1.98279   2.24959
C     3.59246   1.54823   3.51466
C     3.16187   0.64779   4.41066
C     0.78052  -0.03531   3.11381
C    -0.53656   0.21410   3.13702
C    -2.19267   1.74445   1.53775
C    -1.07188   2.71222   1.20595
C    -2.74240  -0.46431   4.66460
C    -2.24370  -1.88716   4.80321
H     2.05759   1.76268   0.39988
H     3.41816   2.96220   1.94295
H     4.51467   2.04954   3.78496
H     3.75924   0.46601   5.29299
H    -2.69316   2.00484   2.47086
H    -2.91132   1.68328   0.71977
H    -0.58434   2.41847   0.25704
H    -0.33586   2.74924   2.01182
H    -1.48531   3.71032   1.07488
H    -3.34100  -0.33073   3.76425
H    -3.32064  -0.15604   5.53464
H    -1.60141  -1.98467   5.67558
H    -3.08972  -2.56156   4.91424
H    -1.67954  -2.18555   3.92125
O    -1.19807   0.24724  -1.10725
