51

Pt    0.00000   0.00000   0.00000
S    -1.85224   1.35227  -0.31676
N     1.62306  -1.16904   0.13430
N     6.96625  -0.23682  -2.57175
N     0.57277  -3.10149   4.40318
O     6.46992   0.15937  -3.60459
O     8.15384  -0.24710  -2.33152
O    -0.59839  -2.99776   4.11173
O     0.98924  -3.52781   5.45986
C     0.32792  -0.34161  -1.93639
C    -0.48415  -0.13016  -3.04088
H    -1.50123   0.20910  -2.90258
C    -0.01865  -0.37863  -4.32182
H    -0.66932  -0.22334  -5.17006
C     1.26876  -0.85885  -4.52172
H     1.61156  -1.08638  -5.51979
C     2.10967  -1.06055  -3.44756
H     3.08615  -1.48745  -3.61600
C     1.66337  -0.77065  -2.15365
C     2.40777  -1.03176  -0.93229
C     3.83238  -1.15363  -0.78143
C     4.71483  -0.66579  -1.75392
H     4.34581  -0.17962  -2.64252
C     6.07578  -0.74297  -1.55556
C     6.60978  -1.27928  -0.37952
H     7.68128  -1.32494  -0.26186
C     5.75768  -1.70055   0.60780
H     6.17308  -2.06514   1.53236
C     4.36288  -1.64303   0.44442
C     3.44514  -2.03108   1.48334
C     3.82864  -2.64328   2.69000
H     4.86394  -2.88320   2.86685
C     2.90401  -2.95297   3.65369
H     3.19444  -3.40876   4.58748
C     1.54663  -2.70519   3.41652
C     1.12364  -2.11824   2.24484
H     0.06757  -1.98241   2.04597
C     2.07355  -1.74285   1.28159
C    -2.94986   1.04119   1.11828
H    -3.81453   0.48660   0.76031
H    -2.39862   0.45447   1.85314
C    -3.28562   2.42265   1.65203
H    -4.00151   2.91908   0.99276
H    -3.71807   2.35296   2.64959
C    -1.96433   3.18250   1.66630
H    -1.30405   2.73924   2.41295
H    -2.10200   4.23845   1.89797
C    -1.34682   3.01387   0.28564
H    -0.25958   3.07312   0.29697
H    -1.74557   3.72815  -0.43500
O     0.15830   0.46132   1.57627
