49

Ni    0.00000   0.00000   0.00000
O     2.04834   1.84451  -0.34832
O     0.87863  -1.74989   0.42047
O     2.67645  -4.03235   0.87547
P     0.11207  -0.53540  -2.11870
P    -0.00069   0.48650   2.13224
C     2.72525  -0.37831   0.16579
C     4.11770  -0.16656   0.13016
H     4.49287   0.82355  -0.08004
C     4.94513  -1.23036   0.35520
H     6.01636  -1.10513   0.33432
C     4.40927  -2.49630   0.61820
H     5.06662  -3.33524   0.78836
C     3.05291  -2.73742   0.66210
C     2.15478  -1.64972   0.42694
C     1.82739   0.69707  -0.09926
C     0.21834  -2.32975  -2.43837
H    -0.62701  -2.83008  -1.96718
H     1.14380  -2.73205  -2.02837
H     0.19296  -2.49806  -3.51545
C     1.52101   0.08921  -3.11283
H     1.39495  -0.21784  -4.15091
H     2.45707  -0.31535  -2.72835
H     1.56372   1.17640  -3.05950
C    -1.30078  -0.06833  -3.18163
H    -1.12853  -0.46498  -4.18198
H    -1.39745   1.01420  -3.23339
H    -2.21967  -0.48827  -2.77566
C     0.12979  -0.97075   3.22424
H     1.11049  -1.43136   3.11001
H    -0.63879  -1.69430   2.95418
H    -0.00670  -0.65376   4.25854
C    -1.48622   1.31069   2.80908
H    -2.36143   0.68637   2.63663
H    -1.63961   2.27526   2.32905
H    -1.34425   1.45660   3.87987
C     1.32853   1.55556   2.80614
H     1.14662   1.73248   3.86604
H     1.34729   2.50800   2.27790
H     2.29680   1.07091   2.68267
C    -0.73754   1.78740  -0.45194
H    -0.43575   2.52628   0.29531
H    -1.82704   1.74851  -0.49980
H    -0.34587   2.13086  -1.41309
C     1.35834  -4.32303   1.29540
H     1.15525  -3.89247   2.28082
H     1.31151  -5.40914   1.36201
H     0.60750  -3.96616   0.58956
O    -1.45663  -0.76168   0.14344
