31

I    -0.55756   2.55273   0.09724
Pd    0.00000   0.00000   0.00000
Cl    4.26264  -1.80613   1.79171
N     2.61968   0.61515   1.46349
N     8.38065   1.76195   4.62873
C     7.39250   1.55997   4.08654
C     5.86541   0.02485   2.98820
C     6.16971   1.31806   3.41343
C     4.67290  -0.21924   2.33171
C     3.78593   0.84522   2.10369
C     4.09516   2.13762   2.53048
C     5.28441   2.37469   3.18450
C     1.63070   0.34668   0.90560
H     6.55608  -0.78357   3.16986
H     3.39487   2.93731   2.34143
H     5.53548   3.36882   3.52010
C    -1.63075  -0.34684  -0.90547
N    -2.61983  -0.61544  -1.46310
C    -3.78600  -0.84541  -2.10351
C    -4.67290   0.21910  -2.33162
Cl   -4.26272   1.80593  -1.79138
C    -5.86534  -0.02492  -2.98826
C    -6.16967  -1.31812  -3.41350
C    -7.39285  -1.56028  -4.08584
N    -8.38009  -1.76173  -4.62998
C    -5.28444  -2.37479  -3.18447
C    -4.09525  -2.13778  -2.53034
H    -3.39508  -2.93753  -2.34111
H    -5.53560  -3.36893  -3.51997
H    -6.55601   0.78351  -3.16988
O     0.35176  -1.61091  -0.06122
