51

Ru    0.00000   0.00000   0.00000
S    -0.34011  -2.34493  -0.35079
S     1.87259  -0.41888   1.19029
S     1.11070   0.37668  -1.91521
Cl   -3.54071   5.34829   3.33510
O     0.25095   2.02885   0.40931
O     1.61283  -0.72166   2.59213
O     2.54608   0.09211  -1.89214
N    -1.09952  -0.26195   1.66192
C    -0.61221   2.68085   1.08904
C    -0.56384   4.10245   1.01430
H     0.19821   4.53074   0.38034
C    -1.44168   4.90502   1.68326
H    -1.38706   5.97879   1.59121
C    -2.42643   4.32526   2.49189
C    -2.50354   2.96694   2.62361
H    -3.26290   2.53324   3.25721
C    -1.61117   2.10720   1.94613
C    -1.74314   0.72069   2.21727
H    -2.48238   0.48230   2.98227
C    -1.21129  -1.55459   2.15777
C    -1.56758  -1.84498   3.48038
H    -1.73025  -1.03970   4.17881
C    -1.66035  -3.14996   3.92044
H    -1.92867  -3.34302   4.94803
C    -1.39827  -4.20852   3.06499
H    -1.46894  -5.22651   3.41435
C    -1.00993  -3.94576   1.76369
H    -0.76571  -4.74939   1.08523
C    -0.91252  -2.63882   1.32240
C    -1.91110  -2.64351  -1.23863
H    -2.38986  -3.51127  -0.79684
H    -1.65526  -2.83674  -2.27521
H    -2.53283  -1.75359  -1.16544
C     3.07573   0.93782   1.14042
H     2.54982   1.84313   1.42693
H     3.43149   1.00833   0.11895
H     3.87558   0.72183   1.83869
C     2.96686  -1.73927   0.57728
H     3.84200  -1.78529   1.21400
H     3.22509  -1.49168  -0.44592
H     2.41843  -2.67442   0.62468
C     0.91403   2.06366  -2.54609
H     1.48701   2.17199  -3.45924
H     1.27998   2.73355  -1.77490
H    -0.14703   2.22203  -2.70512
C     0.43465  -0.49745  -3.36323
H     0.92073  -0.13657  -4.26172
H    -0.63291  -0.30180  -3.37410
H     0.63392  -1.55570  -3.22667
O    -1.35977   0.43643  -0.82646
