59

Ru    0.00000   0.00000   0.00000
S     0.00107  -1.14447   2.15506
O     2.11754  -1.69851  -1.26753
O    -2.48702  -1.32989  -1.01595
O    -0.03747   1.27928  -1.65377
N     1.41132   1.18818   0.88168
C     1.29915  -1.05249  -0.79114
C    -1.49672  -0.88814  -0.67378
C     0.31262   2.50579  -1.63634
C    -0.05360   3.32555  -2.76284
C     0.29495   4.64755  -2.76201
H     0.00298   5.25747  -3.59960
C     1.00831   5.27717  -1.71846
C     1.36922   4.50580  -0.65393
H     1.91337   4.92744   0.17646
C     1.05774   3.12351  -0.57922
C     1.54340   2.44666   0.55688
H     2.09887   3.08201   1.24904
C    -0.85344   2.69433  -3.89598
C    -1.15893   3.68615  -5.02393
H    -1.72044   3.17477  -5.80297
H    -0.24453   4.07191  -5.46992
H    -1.76573   4.51580  -4.66820
C    -0.05682   1.52958  -4.50177
H     0.12280   0.75626  -3.75944
H     0.90145   1.88427  -4.87727
H    -0.61213   1.09128  -5.32814
C    -2.19248   2.18760  -3.34110
H    -2.03411   1.44260  -2.56522
H    -2.77984   1.73594  -4.13763
H    -2.75897   3.01315  -2.91475
C     1.33351   6.75722  -1.84031
C     0.02785   7.55265  -1.97566
H    -0.51864   7.27333  -2.87196
H     0.24238   8.61807  -2.02804
H    -0.61270   7.37056  -1.11554
C     2.20914   6.97566  -3.08222
H     1.69720   6.66594  -3.98897
H     3.12969   6.40165  -2.99831
H     2.46613   8.02833  -3.17945
C     2.09109   7.29062  -0.62141
H     2.29292   8.35147  -0.75501
H     3.04422   6.78104  -0.49910
H     1.50270   7.17206   0.28536
C     2.05361   0.71085   2.01882
C     3.26794   1.23640   2.48250
H     3.76134   2.01387   1.91936
C     3.86641   0.74731   3.62543
H     4.80420   1.16904   3.95370
C     3.27535  -0.27594   4.35049
H     3.73584  -0.64518   5.25290
C     2.09270  -0.83096   3.89783
H     1.61886  -1.63114   4.44471
C     1.51020  -0.36812   2.73040
C     0.63480  -2.84035   1.88542
H     1.58390  -2.80684   1.36031
H    -0.11036  -3.35824   1.28893
H     0.74592  -3.33310   2.84693
O    -1.09501   1.00539   0.71600
