49

Pd    0.00000   0.00000   0.00000
P     0.37720  -1.94200   0.96208
C    -0.43172  -1.95339   2.59063
C    -0.60139  -3.09810   3.36053
C    -1.19253  -3.00327   4.60817
C    -1.60989  -1.77350   5.09012
C    -1.44240  -0.62983   4.32410
C    -0.85494  -0.71667   3.07596
C     0.15155  -3.60898   0.30178
C     1.20452  -4.38026  -0.17860
C     0.94596  -5.62547  -0.72454
C    -0.35534  -6.09378  -0.80636
C    -1.40817  -5.31290  -0.35263
C    -1.16066  -4.06924   0.19593
C     2.12245  -1.74291   1.42909
C     2.71968  -0.52635   1.04479
N     1.98833   0.36656   0.25816
C     4.00933  -0.25766   1.51772
C     4.68571  -1.18289   2.28911
C     4.10058  -2.39307   2.62776
C     2.81013  -2.66096   2.20878
C     2.59083   1.30133  -0.43049
C     2.01321   2.36789  -1.15003
O    -0.31642   1.85707  -0.79558
C     0.59535   2.61570  -1.25079
C     0.19499   3.80854  -1.92578
C     1.09506   4.65447  -2.49930
C     2.47298   4.38514  -2.43461
C     2.90645   3.27321  -1.77656
H    -0.28702  -4.05910   2.97759
H    -1.33125  -3.89264   5.20521
H    -2.07461  -1.70658   6.06251
H    -1.77873   0.32521   4.69881
H    -0.73792   0.17643   2.44589
H     2.21777  -4.00586  -0.12557
H     1.76240  -6.22953  -1.09261
H    -0.55025  -7.06538  -1.23558
H    -2.42269  -5.67298  -0.43452
H    -1.96918  -3.43232   0.53006
H     4.48162   0.69107   1.31245
H     5.68001  -0.94995   2.64009
H     4.63709  -3.10744   3.23282
H     2.32112  -3.58222   2.49221
H     3.68249   1.28632  -0.45945
H    -0.86713   3.99538  -1.97763
H     0.75123   5.54008  -3.01405
H     3.17614   5.05903  -2.89912
H     3.96638   3.06553  -1.71168
O    -1.58879  -0.38977  -0.21521
