49

Pt    0.00000   0.00000   0.00000
O    -0.90720   0.93151  -1.56788
C    -1.66505   1.87375  -1.12788
C    -1.66125   2.22362   0.25596
N    -0.74744   1.52063   1.03232
C    -2.54095   3.20679   0.72677
C    -3.37259   3.86846  -0.14387
C    -3.33748   3.57561  -1.50985
C    -2.50533   2.60332  -1.99808
C    -0.39353   1.96515   2.20309
C     0.46852   1.38997   3.20330
C     1.11184   0.13743   3.16325
C     1.90682  -0.27484   4.22855
C     2.08693   0.51919   5.34370
C     1.45923   1.75664   5.39989
C     0.66898   2.17643   4.35416
P     0.97080  -0.98962   1.75051
C     2.69774  -1.45035   1.44317
C     3.30720  -2.58973   1.95252
C     4.63895  -2.83785   1.66711
C     5.36042  -1.95594   0.88030
C     4.75257  -0.81907   0.36938
C     3.42419  -0.56677   0.64953
C     0.18269  -2.48522   2.40516
C    -0.44761  -2.53474   3.64343
C    -1.06222  -3.70574   4.05256
C    -1.05822  -4.82014   3.23012
C    -0.44635  -4.76552   1.98664
C     0.16871  -3.60100   1.56857
H    -2.60774   3.42236   1.78323
H    -4.06166   4.61012   0.22975
H    -3.98996   4.11135  -2.18374
H    -2.48687   2.34665  -3.04584
H    -0.79781   2.92819   2.50836
H     2.39100  -1.24008   4.16862
H     2.70895   0.18249   6.15866
H     1.58996   2.39168   6.26315
H     0.18649   3.14176   4.41359
H     2.74082  -3.28705   2.55458
H     5.11324  -3.72680   2.05646
H     6.39711  -2.15919   0.65643
H     5.31393  -0.13883  -0.25330
H     2.91971   0.30481   0.24096
H    -0.45608  -1.66361   4.28361
H    -1.54834  -3.74611   5.01633
H    -1.53953  -5.73047   3.55556
H    -0.45492  -5.63070   1.34086
H     0.63277  -3.53151   0.59321
O     0.57830  -1.20173  -0.97155
