49

Ni    0.00000   0.00000   0.00000
O    -1.42035   1.09264   0.60644
C    -0.99305   2.25193   0.96001
C     0.40382   2.53538   0.89092
N     1.17235   1.44273   0.50555
C     0.87565   3.81978   1.18727
C    -0.00380   4.79339   1.59516
C    -1.36632   4.50638   1.72717
C    -1.86100   3.26561   1.42325
C     2.45531   1.44437   0.69840
C     3.43960   0.46692   0.30455
C     3.18514  -0.71578  -0.41424
C     4.23450  -1.56601  -0.74233
C     5.53568  -1.27013  -0.38167
C     5.80032  -0.10652   0.32717
C     4.76983   0.74393   0.66176
P     1.48904  -1.18278  -0.89841
C     1.53036  -2.98323  -0.65389
C     1.83957  -3.88681  -1.66287
C     1.89044  -5.24060  -1.37851
C     1.63938  -5.69501  -0.09491
C     1.33108  -4.79487   0.91314
C     1.27578  -3.44325   0.63437
C     1.49812  -0.95047  -2.70011
C     2.45543  -0.16823  -3.33687
C     2.39163   0.01695  -4.70697
C     1.37372  -0.56657  -5.44278
C     0.40927  -1.33359  -4.80692
C     0.46387  -1.52282  -3.43906
H     1.91832   4.07212   1.05837
H     0.35677   5.78860   1.80611
H    -2.03936   5.28448   2.05732
H    -2.91353   3.04016   1.49398
H     2.88827   2.29318   1.22664
H     4.02202  -2.47201  -1.29182
H     6.33775  -1.94102  -0.64905
H     6.81222   0.13330   0.61736
H     4.98508   1.64820   1.21359
H     2.03073  -3.53702  -2.66778
H     2.12549  -5.94327  -2.16463
H     1.67828  -6.75274   0.11917
H     1.12857  -5.14988   1.91250
H     1.01576  -2.72801   1.40561
H     3.24892   0.29190  -2.76433
H     3.13727   0.62330  -5.20014
H     1.32742  -0.41677  -6.51127
H    -0.39073  -1.77974  -5.37859
H    -0.29434  -2.09868  -2.92566
O    -1.02560  -1.23239  -0.38971
