27

Pd    0.00000   0.00000   0.00000
Cl    0.77015   1.54139  -1.41828
S    -0.81372  -1.61309   1.50284
S    -2.15581   0.89568  -0.24627
O    -2.32656  -0.68576   4.27412
O    -4.56509   0.89069  -1.87706
C    -2.63346  -1.42257   1.32806
C    -3.10227  -0.01314   1.03744
C    -0.38344  -0.50897   2.89725
C    -0.94463  -0.98521   4.22730
C    -2.40427  -0.09765  -1.76527
C    -3.87692  -0.31833  -2.08742
H    -2.66195  -0.87183   5.15625
H    -5.41953   0.86608  -2.31717
H    -2.88679  -2.10929   0.51864
H    -3.08362  -1.77691   2.25502
H    -3.00821   0.60614   1.93074
H    -4.14677  -0.00640   0.72659
H     0.71047  -0.53565   2.91066
H    -0.72681   0.51024   2.68203
H    -0.77931  -2.06661   4.33331
H    -0.41329  -0.46834   5.03778
H    -1.93306   0.52807  -2.52764
H    -1.86683  -1.05363  -1.69286
H    -3.95682  -0.65204  -3.13052
H    -4.29599  -1.11162  -1.44666
O     1.51295  -0.63347   0.17946
