35

Pd    0.00000   0.00000   0.00000
Cl    1.92111  -0.18847  -1.11415
C    -1.90679   1.39778  -1.27154
C    -0.78475   1.99485  -1.86760
C    -0.23594   1.44055  -3.01737
C    -0.78470   0.28953  -3.55948
C    -1.89444  -0.29952  -2.97515
C    -2.46798   0.25747  -1.84278
O    -2.47971   1.99163  -0.14672
N    -1.69020   0.24853   1.16927
C    -2.53089   1.26766   0.99247
C    -3.44706   1.65403   1.97093
C    -3.49207   0.93846   3.15028
C    -2.63387  -0.14364   3.31800
C    -1.75059  -0.45324   2.30442
O    -0.23029   3.15535  -1.33947
N     0.58542   1.97210   0.49988
C     0.45394   3.10357  -0.18636
C     1.02602   4.30567   0.25115
C     1.76414   4.30575   1.41142
C     1.91668   3.11287   2.11552
C     1.31282   1.97804   1.62414
H     0.63641   1.90411  -3.45128
H    -0.32968  -0.15549  -4.42999
H    -2.31365  -1.20268  -3.38959
H    -3.33611  -0.19219  -1.38113
H    -4.09485   2.49284   1.77723
H    -4.19311   1.21087   3.92389
H    -2.65367  -0.73484   4.21853
H    -1.06943  -1.29673   2.36885
H     0.87984   5.19121  -0.34442
H     2.22363   5.21548   1.76590
H     2.49840   3.07077   3.02135
H     1.40870   1.01704   2.13030
O    -0.39290  -1.57875  -0.27509
