40

Rh    0.00000   0.00000   0.00000
C    -0.60426   0.79127   1.80705
H     0.11809   1.51181   2.20471
H    -1.57368   1.28949   1.70996
Cl   -0.81034  -0.41909   3.08288
Cl   -1.84068   1.00896  -1.01982
N     1.12984   1.61970  -0.37174
C     2.09615   2.02936   0.45586
H     2.22940   1.47210   1.37247
C     2.93415   3.09145   0.16608
H     3.69759   3.37305   0.87384
C     2.77712   3.77378  -1.02841
H     3.41302   4.60816  -1.28207
C     1.77694   3.34976  -1.88812
H     1.60588   3.84241  -2.83221
C     0.98331   2.27691  -1.52644
H     0.18499   1.95006  -2.17927
N    -1.09622  -1.64581   0.30221
C    -2.37671  -1.58364   0.67544
H    -2.81124  -0.60084   0.78835
C    -3.14881  -2.70936   0.89747
H    -4.17754  -2.59573   1.19979
C    -2.58227  -3.96234   0.73635
H    -3.15534  -4.86001   0.91175
C    -1.25520  -4.02761   0.34560
H    -0.75887  -4.97518   0.20731
C    -0.55294  -2.85459   0.13811
H     0.49129  -2.89266  -0.14300
N     0.63660  -0.84573  -2.00429
C    -0.27166  -1.17001  -2.92030
H    -1.30555  -0.98067  -2.66046
C     0.06768  -1.69729  -4.15504
H    -0.70511  -1.94717  -4.86473
C     1.40635  -1.89313  -4.45391
H     1.70595  -2.30296  -5.40720
C     2.35124  -1.55016  -3.50046
H     3.40543  -1.68314  -3.68577
C     1.92212  -1.03151  -2.29018
H     2.62917  -0.77631  -1.51081
O     1.31328  -0.71715   0.69532
