36

Re    0.00000   0.00000   0.00000
N     1.25706  -1.39175   1.03562
N     2.24916  -2.84470   3.15032
N    -1.14734  -1.81140   0.01388
N    -1.15626  -3.75182   3.46540
O    -2.33851   1.82084  -0.87353
O     1.84472   2.42111   0.54223
O     1.09655  -0.62622  -2.82250
C    -1.43564   1.16956  -0.61409
C     1.16170   1.54220   0.27903
C     0.68682  -0.37197  -1.77913
C     2.46301  -1.14260   1.53474
H     3.00600  -0.29872   1.13306
C     2.99251  -1.94962   2.53274
H     4.00775  -1.83509   2.88285
C     1.01253  -3.06294   2.71490
C     0.55836  -2.42706   1.53961
C    -0.64137  -2.78674   0.78548
C    -1.17118  -4.07684   0.77682
H    -0.67935  -4.86508   1.32174
C    -2.31391  -4.32839   0.04531
H    -2.74853  -5.31598   0.03054
C    -2.88778  -3.28713  -0.67267
H    -3.79411  -3.43064  -1.23838
C    -2.25591  -2.05861  -0.67914
H    -2.64542  -1.23896  -1.26912
C     0.16244  -3.86430   3.60553
C     0.74431  -4.63700   4.61132
H     1.81808  -4.69019   4.68610
C    -0.08659  -5.30788   5.49160
H     0.33037  -5.91636   6.28097
C    -1.45931  -5.18000   5.34783
H    -2.14165  -5.67989   6.01705
C    -1.93798  -4.38532   4.31374
H    -2.99946  -4.24757   4.15458
O    -0.56926   0.15405   1.54101
