64

Rh    0.00000   0.00000   0.00000
P     1.61828  -1.60390  -0.00601
O     0.90357  -0.00042   2.63258
C    -0.10860  -0.00048   1.98667
C    -1.48445  -0.00047   2.58373
C     3.17454  -1.26184   0.92074
H     2.91003  -1.17365   1.97810
H     3.81695  -2.14220   0.81763
C     3.89655  -0.00043   0.45952
H     3.99112  -0.00041  -0.63321
H     4.90810  -0.00045   0.87776
C     1.26471  -3.26804   0.63572
C     1.17523  -4.37152  -0.20438
H     1.33131  -4.25778  -1.26798
C     0.86559  -5.61268   0.32129
H     0.79178  -6.46640  -0.33557
C     0.63703  -5.75798   1.67897
H     0.38726  -6.72714   2.08379
C     0.71372  -4.65710   2.51672
H     0.52321  -4.76575   3.57424
C     1.02265  -3.41388   1.99897
H     1.06140  -2.55158   2.65087
C     2.20665  -1.89962  -1.70797
C     3.45944  -2.44174  -1.98554
H     4.12322  -2.73169  -1.18442
C     3.86058  -2.62655  -3.29526
H     4.83510  -3.04557  -3.49983
C     3.01973  -2.28334  -4.34217
H     3.34048  -2.43018  -5.36259
C     1.76587  -1.76308  -4.07525
H     1.09722  -1.50973  -4.88402
C     1.36495  -1.57123  -2.76604
H     0.37304  -1.17982  -2.56930
H    -1.38816  -0.00046   3.67035
H    -2.04833   0.87766   2.26811
P     1.61855   1.60316  -0.00598
C     3.17471   1.26103   0.92084
H     2.91014   1.17289   1.97819
H     3.81712   2.14139   0.81769
C     1.26480   3.26725   0.63576
C     1.17530   4.37072  -0.20434
H     1.33138   4.25698  -1.26795
C     0.86565   5.61188   0.32132
H     0.79185   6.46560  -0.33554
C     0.63707   5.75716   1.67900
H     0.38727   6.72632   2.08382
C     0.71373   4.65628   2.51675
H     0.52318   4.76491   3.57426
C     1.02267   3.41307   1.99899
H     1.06139   2.55075   2.65088
C     2.20669   1.89883  -1.70801
C     3.45945   2.44096  -1.98561
H     4.12324   2.73093  -1.18450
C     3.86057   2.62574  -3.29533
H     4.83508   3.04475  -3.49991
C     3.01971   2.28249  -4.34222
H     3.34045   2.42931  -5.36265
C     1.76586   1.76222  -4.07527
H     1.09720   1.50884  -4.88403
C     1.36496   1.57040  -2.76605
H     0.37306   1.17898  -2.56929
H    -2.04837  -0.87857   2.26813
I    -1.73150   1.94431  -0.51580
O    -1.07581  -1.20928  -0.32057
