65

I    -0.60775   2.51160   0.59052
Rh    0.00000   0.00000   0.00000
P    -0.35235  -0.46084   2.16689
C     1.95494  -0.01524   0.34075
P    -0.10005  -2.25247  -0.18145
C     2.67733   1.25372  -0.01070
H     2.53528   1.97288   0.79888
H     2.31180   1.70993  -0.93032
H     3.74056   1.03062  -0.10556
C     0.31187  -2.12364   2.51644
C     0.43304  -2.96317   1.40627
C     0.91319  -4.25510   1.55687
H     1.00732  -4.90013   0.69387
C     1.27893  -4.70408   2.81542
H     1.66457  -5.70562   2.93524
C     1.16109  -3.87190   3.91710
H     1.45662  -4.22554   4.89380
O     2.47788  -0.99186   0.80023
C     0.67608  -2.58199   3.77364
H     0.60334  -1.92968   4.63357
C     0.25481   0.55665   3.53003
C    -0.58663   1.43775   4.20094
H    -1.63755   1.47760   3.94945
C    -0.06707   2.26935   5.17589
H    -0.71844   2.95536   5.69583
C     1.28537   2.23284   5.47393
H     1.68753   2.88855   6.23156
C     2.12756   1.36651   4.79394
H     3.18360   1.34732   5.01967
C     1.61830   0.53220   3.81722
H     2.26909  -0.14078   3.27295
C    -2.12420  -0.70934   2.48408
C    -2.56456  -1.28926   3.66993
H    -1.85084  -1.54560   4.44106
C    -3.91209  -1.53259   3.85304
H    -4.25543  -1.98325   4.77275
C    -4.82222  -1.20079   2.86073
H    -5.87383  -1.39501   3.00973
C    -4.38772  -0.61940   1.68194
H    -5.09522  -0.35521   0.91064
C    -3.04010  -0.37732   1.49203
H    -2.70157   0.08052   0.56389
C    -1.84518  -2.78052  -0.26362
C    -2.65181  -2.25476  -1.27248
H    -2.22827  -1.59627  -2.01989
C    -3.99727  -2.56710  -1.32304
H    -4.61190  -2.15585  -2.10992
C    -4.55370  -3.39418  -0.36118
H    -5.60700  -3.62955  -0.39322
C    -3.75796  -3.91667   0.64434
H    -4.18825  -4.56049   1.39739
C    -2.40924  -3.61500   0.69650
H    -1.79937  -4.02710   1.48855
C     0.75262  -3.23484  -1.44126
C     2.14335  -3.30839  -1.37806
H     2.66881  -2.83018  -0.56299
C     2.84078  -3.98965  -2.35660
H     3.91810  -4.04604  -2.30633
C     2.16045  -4.58968  -3.40474
H     2.70846  -5.11392  -4.17328
C     0.77968  -4.51116  -3.47171
H     0.24947  -4.97296  -4.29121
C     0.07140  -3.83332  -2.49580
H    -1.00587  -3.77041  -2.55566
O     0.03681   0.14010  -1.64363
