54

Au    0.00000   0.00000   0.00000
P     0.64581   2.15877   0.14413
C     2.46695   2.33889  -0.14573
C     2.79249   1.65185  -1.47493
C     4.29146   1.67713  -1.75480
C     5.04924   0.98993  -0.62458
C     4.74185   1.67524   0.70196
C     3.24199   1.66463   0.98780
C     0.33799   2.83271   1.84235
C    -1.12916   2.61173   2.21683
C    -1.35533   2.97965   3.68047
C    -0.94627   4.42788   3.93531
C     0.51152   4.65144   3.54335
C     0.73478   4.28862   2.07609
C    -0.20991   3.35075  -1.00274
C    -0.79382   2.58077  -2.19082
C    -1.65316   3.50202  -3.05149
C    -0.84022   4.70104  -3.53048
C    -0.25659   5.45824  -2.34153
C     0.62126   4.53466  -1.49811
H     2.73784   3.40011  -0.19779
H     2.45217   0.61173  -1.42671
H     2.25704   2.13450  -2.29586
H     4.62893   2.71306  -1.84480
H     4.49396   1.17479  -2.70237
H     4.74833  -0.05841  -0.57101
H     6.12240   1.02178  -0.81985
H     5.09373   2.70960   0.66591
H     5.26878   1.17153   1.51432
H     2.89676   0.63030   1.09070
H     3.05941   2.17818   1.93415
H     0.94148   2.18740   2.49748
H    -1.77749   3.22937   1.58974
H    -1.40040   1.56455   2.04697
H    -0.76345   2.31684   4.31585
H    -2.40642   2.83732   3.93744
H    -1.58497   5.09383   3.34994
H    -1.08753   4.67250   4.98935
H     1.15538   4.03215   4.17249
H     0.78674   5.69509   3.70871
H     0.12071   4.94298   1.45346
H     1.78336   4.44797   1.81291
H    -1.05431   3.74066  -0.41577
H     0.01325   2.16257  -2.79775
H    -1.39792   1.74447  -1.82557
H    -2.50617   3.85261  -2.46537
H    -2.04183   2.94718  -3.90687
H    -0.02817   4.35600  -4.17470
H    -1.47331   5.36659  -4.11957
H    -1.06964   5.85266  -1.72697
H     0.33707   6.30471  -2.69248
H     1.44866   4.18072  -2.11587
H     1.03925   5.09365  -0.65874
O    -0.43724  -1.58890  -0.08205
