64

Zr    0.00000   0.00000   0.00000
Cl    0.29689  -2.23686   0.43230
Cl    1.68115   0.68309   1.42371
C    -2.12118   0.41131   1.09042
C    -3.77064  -0.79414   4.25085
C    -3.60288  -0.32882   2.95903
C    -3.12265  -1.60909  -0.17252
C    -2.90183  -2.61403   0.77170
C    -3.58956  -3.81039   0.69138
C    -4.50714  -4.02710  -0.32332
C    -4.74058  -3.03294  -1.25844
C    -4.05959  -1.83298  -1.18337
C    -2.01914   0.02690  -2.61150
C    -1.40061  -1.19691  -2.89125
C    -2.42036  -0.32065  -0.09786
C    -1.33714  -1.65555  -4.19363
C    -1.88195  -0.90606  -5.22557
C    -2.49641   0.30394  -4.95268
C    -2.56745   0.77136  -3.65225
C    -1.20127   2.92107  -1.51976
C    -0.39836   2.84373  -2.65831
C    -0.13207   3.98109  -3.39904
C    -0.65844   5.20529  -3.02056
C    -1.45996   5.28917  -1.89415
C    -1.73347   4.15742  -1.14979
C    -2.03653   0.48891  -1.21437
C    -1.04606   2.70617   1.61556
C     0.12735   3.38725   1.27202
C     0.64088   4.35378   2.11447
C     0.00201   4.65284   3.30823
C    -1.15826   3.98291   3.65513
C    -1.68336   3.01732   2.81536
C    -1.52797   1.72786  -0.72110
C    -1.56674   1.67161   0.71234
C    -2.32520  -0.06915   2.47007
C    -1.21640  -0.28922   3.28903
C    -1.39426  -0.75269   4.58056
C    -2.66904  -1.00451   5.06315
H    -4.76424  -0.99364   4.62348
H    -4.45836  -0.16576   2.31976
H    -2.17537  -2.46823   1.55928
H    -3.40278  -4.58075   1.42440
H    -5.03858  -4.96493  -0.38391
H    -5.45929  -3.19018  -2.04906
H    -4.26008  -1.05605  -1.90626
H    -0.96839  -1.78558  -2.07834
H    -0.85472  -2.59739  -4.40678
H    -1.82505  -1.26604  -6.24167
H    -2.92209   0.88828  -5.75473
H    -3.04880   1.71410  -3.43606
H     0.02961   1.89503  -2.95416
H     0.49471   3.90988  -4.27523
H    -0.44515   6.09034  -3.60091
H    -1.87694   6.23935  -1.59503
H    -2.36737   4.22310  -0.27738
H     0.64335   3.14437   0.34456
H     1.54963   4.87013   1.84446
H     0.41090   5.40445   3.96639
H    -1.65940   4.21232   4.58376
H    -2.59500   2.50387   3.08386
H    -0.21425  -0.10212   2.90357
H    -0.53435  -0.92357   5.21036
H    -2.80259  -1.36868   6.07058
O     0.99765   0.05203  -1.31320
