25

Zn    0.00000   0.00000   0.00000
Cl    1.24478   1.42869   1.06713
N     0.80611  -0.63922  -1.82807
N    -0.31555  -2.69091  -1.54172
N     0.23606  -1.98462   0.63696
C     1.36495   0.25215  -2.64680
C     1.34328   0.13462  -4.01960
C     0.68934  -0.96141  -4.57500
C     0.12528  -1.89633  -3.73742
C     0.20927  -1.71150  -2.34805
C    -0.29096  -2.89275  -0.18396
C    -0.80882  -4.10296   0.30474
C    -0.75035  -4.36242   1.65493
C    -0.16293  -3.42309   2.49757
C     0.30431  -2.25223   1.94116
H    -0.82306  -3.40442  -2.04854
H     1.84679   1.08633  -2.15584
H     1.80801   0.88187  -4.64079
H     0.62720  -1.08067  -5.64598
H    -0.38496  -2.76048  -4.13484
H    -1.25311  -4.81186  -0.37725
H    -1.15138  -5.28284   2.05128
H    -0.08687  -3.59405   3.55831
H     0.75988  -1.47913   2.54435
O    -1.59352  -0.09080  -0.41827
