61

Zn    0.00000   0.00000   0.00000
O    -1.80814  -0.04160  -4.05001
N    -0.80281   1.62717  -1.09871
C    -0.29751   2.78698  -0.67310
C    -0.31437   3.92496  -1.47196
C    -0.85685   3.83583  -2.74503
C    -1.40281   2.63691  -3.16021
C    -1.37703   1.54554  -2.29237
C    -2.00860   0.23539  -2.68370
C    -0.49478  -0.45161  -4.35757
C    -3.54092   0.21540  -2.39718
C    -3.82675   0.67220  -0.96763
C    -4.27873   1.11784  -3.38722
C    -4.00900  -1.23052  -2.57397
H     0.12536   4.84593  -1.12508
H    -0.85172   4.69401  -3.40025
H    -1.82932   2.51414  -4.14230
H    -1.54769  -0.55527  -2.06471
H    -0.49150  -0.69175  -5.41896
H    -0.20863  -1.33513  -3.77885
H     0.23503   0.34104  -4.15847
H    -3.57380   1.72194  -0.82724
H    -3.26581   0.08182  -0.24767
H    -4.88574   0.54854  -0.75372
H    -4.04089   2.16526  -3.21410
H    -5.35178   0.99045  -3.26623
H    -4.00872   0.85376  -4.40549
H    -5.08762  -1.29383  -2.45365
H    -3.54232  -1.87302  -1.83104
H    -3.74552  -1.58953  -3.56524
Cl   -1.43842  -1.00086   1.34048
C     0.29601   2.78700   0.67423
N     0.80123   1.62719   1.09995
C     1.37533   1.54559   2.29367
C     1.40103   2.63699   3.16147
C     0.85521   3.83593   2.74616
C     0.31287   3.92502   1.47304
H    -0.12678   4.84599   1.12606
H     0.85005   4.69415   3.40134
H     1.82740   2.51425   4.14363
C     2.00674   0.23542   2.68518
O     1.80568  -0.04166   4.05139
C     0.49207  -0.45124   4.35844
H     0.48844  -0.69189   5.41971
H     0.20565  -1.33435   3.77922
H    -0.23733   0.34185   4.15956
C     3.53919   0.21538   2.39932
C     3.82568   0.67248   0.97001
H     3.57283   1.72227   0.82975
H     3.26506   0.08231   0.24964
H     4.88476   0.54884   0.75654
C     4.27667   1.11755   3.38986
H     4.03906   2.16503   3.21681
H     5.34975   0.99002   3.26932
H     4.00618   0.85333   4.40796
C     4.00707  -1.23061   2.57602
H     5.08573  -1.29400   2.45610
H     3.54062  -1.87294   1.83280
H     3.74317  -1.58979   3.56712
H     1.54607  -0.55519   2.06594
O     1.07652  -0.74541  -1.00397
