58

W     0.00000   0.00000   0.00000
Cl   -0.63345   1.39969   1.85243
Cl    0.71635  -1.33918   1.98814
N    -1.59045  -1.21890   0.40136
N     0.62347  -1.78526  -0.77725
C    -0.41880   0.15482  -2.40036
C    -1.65051   0.48236  -1.74471
C    -1.44779   1.66153  -0.98312
C    -0.06686   2.03741  -1.11037
C     0.54475   1.13605  -2.04683
C    -0.29638  -0.84462  -3.51693
H    -0.93050  -1.71262  -3.31880
H     0.73193  -1.20325  -3.59775
C    -0.70601  -0.20810  -4.84902
H    -0.60512  -0.93049  -5.65501
H    -1.73827   0.12856  -4.81354
H    -0.07429   0.64863  -5.06786
C    -2.97182  -0.15184  -2.06500
H    -3.38224   0.29985  -2.97001
H    -2.86619  -1.22167  -2.23852
H    -3.69110  -0.00785  -1.26203
C    -2.50830   2.54534  -0.40067
H    -2.50894   3.49665  -0.93383
H    -3.49421   2.09684  -0.49287
H    -2.30346   2.74917   0.65117
C     0.51850   3.33943  -0.65267
H     0.32505   4.12554  -1.38527
H     0.07934   3.63188   0.29994
H     1.59469   3.23966  -0.52053
C     1.85201   1.39583  -2.73178
H     1.79256   2.34759  -3.26087
H     2.65997   1.46718  -2.00285
H     2.08822   0.61455  -3.44946
C    -2.76762  -0.85020   0.94274
H    -2.89647   0.21562   1.09088
C    -3.71867  -1.73499   1.36298
H    -4.62757  -1.37700   1.81903
C    -3.48383  -3.12473   1.24425
C    -2.28997  -3.51759   0.69728
H    -2.05756  -4.56683   0.61145
C    -1.33747  -2.56993   0.27382
C    -4.50398  -4.10163   1.72982
H    -4.19865  -5.12331   1.52034
H    -4.64205  -3.99240   2.80493
H    -5.46504  -3.91468   1.25229
C     1.75805  -2.00804  -1.46861
H     2.34289  -1.12489  -1.69703
C     2.21185  -3.25249  -1.79937
H     3.14567  -3.36587  -2.32600
C     1.47781  -4.39427  -1.40217
C     0.32161  -4.18586  -0.69602
H    -0.25606  -5.02797  -0.35049
C    -0.11213  -2.88353  -0.37961
C     1.98353  -5.76130  -1.72797
H     1.28180  -6.52565  -1.40510
H     2.14602  -5.86009  -2.80052
H     2.93800  -5.93265  -1.23148
O     1.57601   0.44601   0.19938
