61

Ni    0.00000   0.00000   0.00000
P    -1.20281   1.40664  -1.07994
P    -1.94452  -0.22378   0.89106
Br    1.82177   0.56299  -1.15616
S    -3.74061   3.97739   1.07668
N    -2.56483   1.02774  -0.11173
C    -1.01089   3.20379  -0.90505
C    -0.13937   3.64861   0.08296
H     0.45301   2.92779   0.63874
C    -0.01196   5.00147   0.33587
H     0.66900   5.34627   1.09930
C    -0.75494   5.90960  -0.40036
H    -0.65636   6.96737  -0.20755
C    -1.61802   5.46830  -1.39115
H    -2.18995   6.18094  -1.96668
C    -1.75060   4.11637  -1.64814
H    -2.41606   3.77162  -2.42811
C    -1.69970   1.15278  -2.79978
C    -2.70545   0.25357  -3.13794
H    -3.25436  -0.26471  -2.36169
C    -2.99585   0.01840  -4.46914
H    -3.78464  -0.67115  -4.73199
C    -2.26887   0.65671  -5.46129
H    -2.49647   0.46700  -6.49949
C    -1.23970   1.52298  -5.12533
H    -0.65917   2.00076  -5.89981
C    -0.94752   1.76909  -3.79745
H    -0.13273   2.42523  -3.52216
C    -2.36686   0.24309   2.58827
C    -2.11795   1.55316   2.98691
H    -1.72761   2.26631   2.27120
C    -2.37505   1.94052   4.28670
H    -2.19676   2.96152   4.58995
C    -2.85144   1.01364   5.20086
H    -3.05377   1.31614   6.21740
C    -3.04564  -0.30404   4.82031
H    -3.38795  -1.03079   5.54190
C    -2.79390  -0.69786   3.51835
H    -2.92045  -1.73031   3.22429
C    -2.98421  -1.65232   0.47064
C    -4.31460  -1.75187   0.86538
H    -4.73413  -1.01663   1.53795
C    -5.08526  -2.80574   0.40916
H    -6.11836  -2.88618   0.71491
C    -4.53521  -3.75861  -0.43488
H    -5.14254  -4.58093  -0.78248
C    -3.21041  -3.66222  -0.82816
H    -2.77999  -4.40724  -1.47986
C    -2.43699  -2.60695  -0.38037
H    -1.39617  -2.52614  -0.67865
C    -3.93062   1.51565  -0.25663
H    -4.61870   0.66451  -0.34226
H    -3.97023   2.08953  -1.18930
C    -4.35560   2.36643   0.89096
C    -5.18526   2.03888   1.91915
H    -5.68737   1.09108   1.99937
C    -5.33230   3.07564   2.86675
H    -5.94602   2.99678   3.74553
C    -4.61108   4.17733   2.54479
H    -4.53418   5.10530   3.07518
O     0.66662  -1.17445   0.94805
