64

Au    0.00000   0.00000   0.00000
P     1.00213   1.13976   1.64181
P     2.18812  -0.03791   3.56502
O     0.94382   2.73879   1.60593
O     2.78624   0.99284   4.67055
O     0.73638   2.41321  -1.08488
O     4.75880   2.60415   5.32565
N     0.67819   0.76956   3.26779
N     2.58993   0.87632   2.13405
C    -0.60691   0.35752   3.80152
C    -1.65125   1.33399   3.26266
H    -1.41444   2.34715   3.57962
H    -2.64331   1.07298   3.62215
H    -1.65811   1.30416   2.17027
C    -0.51440   0.44946   5.32521
H     0.23784  -0.24913   5.68955
H    -1.46991   0.20641   5.78268
H    -0.22005   1.45314   5.62168
C    -0.94908  -1.07363   3.38465
H    -1.01088  -1.14759   2.29842
H    -1.90253  -1.37852   3.80885
H    -0.17439  -1.75561   3.73321
C     3.73255   0.59854   1.28506
C     3.59082  -0.76011   0.59749
H     3.48340  -1.54518   1.34546
H     4.46455  -0.97473  -0.01316
H     2.70671  -0.76885  -0.04119
C     3.80637   1.71557   0.24799
H     2.88067   1.73568  -0.32654
H     4.64180   1.55802  -0.42987
H     3.92478   2.67572   0.74524
C     4.96426   0.60453   2.19091
H     5.01460   1.54185   2.74009
H     5.87175   0.47923   1.60563
H     4.89511  -0.21227   2.91132
C     0.08194   3.52804   0.87398
C    -0.63686   4.50546   1.53756
H    -0.50925   4.60223   2.60438
C    -1.49390   5.33922   0.83833
H    -2.05084   6.09920   1.36291
C    -1.63344   5.18374  -0.52693
H    -2.30698   5.81947  -1.08044
C    -0.91028   4.21433  -1.20330
H    -1.03457   4.10750  -2.26842
C    -0.03940   3.38087  -0.51561
C     0.68139   2.24194  -2.48841
H    -0.30673   1.90065  -2.80522
H     1.40726   1.46413  -2.71790
H     0.95266   3.16485  -3.00716
C     3.56889   0.62576   5.73216
C     3.35833  -0.54037   6.44160
H     2.56221  -1.19839   6.12207
C     4.15384  -0.85738   7.53115
H     3.97914  -1.77127   8.07648
C     5.16329   0.00448   7.90930
H     5.78682  -0.22877   8.75860
C     5.39166   1.17500   7.20187
H     6.19195   1.82765   7.51190
C     4.60734   1.49941   6.10337
C     5.76278   3.52885   5.66313
H     5.60725   3.94552   6.66336
H     5.68616   4.32688   4.92634
H     6.75986   3.07937   5.60715
O    -0.74786  -0.72680  -1.27866
