31

Mn    0.00000   0.00000   0.00000
S     0.90174   3.92732   1.98516
N     0.88534  -0.06083   1.85211
C    -0.45202   3.17733  -0.09028
N    -0.02005   2.01900   0.49410
O    -2.71838  -0.42583   0.99629
C     1.32459  -1.12817   2.51585
H     1.06238  -2.09637   2.10871
C    -0.03596   4.34561   0.58160
O     0.29545  -2.85608  -0.58925
C     1.96370   1.32738   3.50075
H     2.19087   2.32588   3.84067
C    -1.24160   3.29642  -1.23473
H    -1.58014   2.40841  -1.74520
C    -1.57585   4.55386  -1.68492
H    -2.18227   4.65519  -2.57139
C    -0.54319   0.13172  -1.69925
O    -0.82509   0.11029  -2.81231
C    -1.14419   5.70001  -1.01695
H    -1.41787   6.67231  -1.39605
C     0.68167   2.25200   1.57395
C    -1.64772  -0.24490   0.61709
C     1.20043   1.15435   2.34669
C     0.18524  -1.74394  -0.32552
C    -0.37427   5.60861   0.12446
H    -0.04036   6.48818   0.65140
C     2.08822  -1.04137   3.66607
H     2.42212  -1.94290   4.15338
C     2.42025   0.21042   4.16950
H     3.02218   0.30832   5.05916
O     1.52745   0.25964  -0.56745
