63

Zn    0.00000   0.00000   0.00000
Cl   -0.27901  -1.24087  -1.81888
N     0.92236   2.03975  -1.74111
N     3.79664  -0.29774  -1.54765
N     2.11496   0.05239  -0.14196
N    -0.40217   4.00006   1.01209
N    -0.76638   1.91000   0.37403
C    -0.62495   3.73212  -2.61547
H    -0.29438   4.47155  -1.90377
C    -1.62584   4.09623  -3.50064
H    -2.03540   5.09498  -3.44656
C    -2.09474   3.20161  -4.44252
H    -2.87590   3.48910  -5.12970
C    -1.55768   1.92488  -4.47902
H    -1.92670   1.20283  -5.19175
C    -0.56163   1.55243  -3.59941
H    -0.21233   0.53265  -3.60639
C    -0.07124   2.45398  -2.65255
C     2.06886   1.34270  -2.27319
H     2.86829   2.05018  -2.56700
H     1.75470   0.79795  -3.16657
C     2.63748   0.35997  -1.30544
C     4.62424  -0.18136  -2.71615
H     3.98688  -0.10269  -3.60380
H     5.20580  -1.10442  -2.81295
C     5.56807   0.98962  -2.66801
H     6.13236   1.13408  -3.57885
C     5.73753   1.78862  -1.63226
H     5.19518   1.65667  -0.70983
H     6.43717   2.60536  -1.65793
C     4.04589  -1.08730  -0.44523
C     5.08012  -1.95365  -0.12730
H     5.91013  -2.12073  -0.79688
C     5.00291  -2.59430   1.09305
H     5.78683  -3.27970   1.37823
C     3.93502  -2.38035   1.96691
H     3.91684  -2.90996   2.90701
C     2.90484  -1.51595   1.66061
H     2.06910  -1.35925   2.32281
C     2.96775  -0.86545   0.43416
C     1.21246   2.92519  -0.63240
H     1.50787   3.93531  -0.95914
H     2.04427   2.49530  -0.06588
C     0.01321   2.95687   0.25554
C     0.19343   5.30181   1.15213
H     1.24216   5.25258   0.84359
H     0.18089   5.57031   2.21619
C    -0.51326   6.38065   0.37369
H    -0.00982   7.33734   0.41110
C    -1.64266   6.23396  -0.29121
H    -2.17026   5.29589  -0.34109
H    -2.09031   7.05745  -0.81933
C    -1.55178   3.58764   1.65673
C    -2.40559   4.22623   2.54307
H    -2.24428   5.24758   2.85197
C    -3.48081   3.49408   3.00490
H    -4.17033   3.95199   3.69793
C    -3.70105   2.17554   2.59928
H    -4.55506   1.64606   2.99258
C    -2.85771   1.53664   1.71532
H    -3.01470   0.51650   1.40675
C    -1.76834   2.25861   1.24510
O    -0.33642  -0.67301   1.46846
