61

Zr    0.00000   0.00000   0.00000
Si   -2.26590  -1.82835   1.28052
Si   -2.83016   0.28337  -1.35350
Cl    1.86369  -0.54483   1.29855
C    -1.93740   0.03017   1.44450
C    -0.94214   0.65943   2.24639
C    -0.45644   0.22980   3.60125
C    -0.57229   1.88061   1.62411
C     0.45289   2.85250   2.13389
C    -1.35564   2.02780   0.45812
C    -2.20445   0.89641   0.32638
C    -1.26580  -1.97159  -0.33239
C     0.05165  -2.49163  -0.49051
C     0.66866  -3.60928   0.31601
C     2.15161  -3.80974   0.00079
C    -0.10640  -4.90355   0.03515
C     0.60410  -1.93988  -1.66899
C    -0.34837  -1.08641  -2.26882
C    -0.22644  -0.46407  -3.63876
C     1.20174  -0.52823  -4.18086
C    -1.19100  -1.17934  -4.59352
C    -1.51651  -1.08555  -1.45420
C    -4.10737  -2.32429   1.14754
C    -1.56201  -2.81814   2.75640
C    -4.63411  -0.30821  -1.56030
C    -2.58257   1.75314  -2.55249
H    -1.36486   2.90907  -0.17300
H     1.55876  -2.21061  -2.09685
H    -0.32558   1.10340   4.24021
H     0.50814  -0.28052   3.54012
H    -1.17690  -0.43324   4.07264
H     0.11029   3.34220   3.04829
H     0.64976   3.62019   1.38575
H     1.39044   2.33585   2.35850
H     0.58614  -3.37769   1.38297
H     2.70183  -2.88258   0.14905
H     2.29007  -4.14899  -1.02351
H     2.56967  -4.56350   0.66450
H    -1.16080  -4.77697   0.26811
H     0.29064  -5.72165   0.63185
H    -0.01787  -5.16745  -1.01657
H    -0.51145   0.59147  -3.58701
H     1.89168  -0.05369  -3.48521
H     1.25934  -0.00097  -5.13059
H     1.51026  -1.55817  -4.34728
H    -2.21194  -1.11119  -4.22512
H    -0.92411  -2.23097  -4.67333
H    -1.14422  -0.73410  -5.58472
H    -4.42400  -2.81599   2.06046
H    -4.27775  -3.01618   0.33052
H    -4.74848  -1.46506   0.99902
H    -0.53821  -2.55085   2.99498
H    -1.59840  -3.88357   2.55866
H    -2.16764  -2.63895   3.63890
H    -4.99446  -0.04205  -2.54792
H    -5.28843   0.16672  -0.83862
H    -4.73324  -1.38038  -1.45152
H    -2.78857   1.47313  -3.57959
H    -1.57351   2.15516  -2.50311
H    -3.27079   2.55306  -2.29605
O     0.83525   1.09096  -0.91360
