42

Zn    0.00000   0.00000   0.00000
Cl    0.55906  -0.66259  -2.10574
N    -1.57180  -1.39197   0.05549
N    -1.77514   1.17810  -0.64731
H    -1.38793   1.81834  -1.33504
N     0.90211  -1.80261   1.02928
H     1.43889  -2.12919   0.22749
O    -1.69924   0.54133   2.23405
O     0.13621  -1.27293   3.88714
C    -1.40067  -2.57625   0.61199
C    -2.39305  -3.54940   0.54232
H    -2.24466  -4.51271   1.00471
C    -3.56493  -3.25219  -0.13287
H    -4.35491  -3.98492  -0.20189
C    -3.71088  -2.00936  -0.73058
H    -4.60522  -1.75550  -1.27790
C    -2.67136  -1.09569  -0.61710
C    -2.68100   0.24578  -1.30077
H    -2.30383   0.06609  -2.31360
H    -3.70615   0.63774  -1.37052
C    -2.36637   1.97026   0.42297
H    -3.23395   2.54571   0.06492
H    -1.59458   2.65423   0.78130
C    -2.81719   1.11568   1.60162
H    -3.35581   1.75886   2.31628
H    -3.51230   0.32849   1.26778
C    -2.05495  -0.27174   3.33117
H    -2.38415  -1.26185   2.97924
H    -2.89071   0.19284   3.87588
C    -0.89512  -0.42872   4.32698
H    -0.50509   0.56387   4.57649
H    -1.29935  -0.89350   5.23269
C     1.17921  -0.61063   3.17579
H     1.95040  -0.29517   3.89239
H     0.78977   0.27057   2.66412
C     1.81287  -1.53838   2.14339
H     2.69383  -1.02867   1.74959
H     2.12592  -2.47280   2.62950
C    -0.11267  -2.80285   1.35051
H    -0.32663  -2.71750   2.42210
H     0.24110  -3.82472   1.15628
O     0.82549   1.32400   0.53673
