26

Pt    0.00000   0.00000   0.00000
Cl    0.25697  -1.81890   1.28440
S    -1.59730   0.67967   1.47743
O     0.31740   2.68798  -0.09224
O    -2.35217   1.84149   0.99705
N    -0.28769   1.80989  -1.01477
C    -0.14058   4.02066  -0.26008
C    -0.12775   4.44328  -1.69913
C     0.03781   3.55995  -2.67117
C     0.18790   2.09951  -2.36650
C    -2.80043  -0.54253   2.07688
C    -0.85611   1.12825   3.07232
H    -1.30021   1.99027  -0.96398
H    -1.15561   4.12046   0.16005
H     0.54423   4.63195   0.33230
H    -0.25999   5.49635  -1.88811
H     0.07746   3.84973  -3.70880
H    -0.37955   1.48397  -3.06796
H     1.23859   1.79141  -2.42558
H    -3.38955  -0.10299   2.87280
H    -2.23504  -1.40323   2.41513
H    -3.43817  -0.81598   1.24348
H    -0.11832   1.90171   2.88522
H    -0.37624   0.23695   3.45994
H    -1.62686   1.49402   3.74053
O     1.18508  -0.46175  -1.05113
