26

Pt    0.00000   0.00000   0.00000
Cl   -1.39281  -1.78716  -0.38364
S    -1.36451   1.42937  -1.03028
O     2.26330  -1.59191  -0.00683
O    -2.17292   2.24380  -0.15249
N     1.23155  -1.34037   0.91156
C     2.96456  -2.78617   0.30287
C     3.30110  -2.88871   1.76098
C     2.77244  -2.05984   2.64737
C     1.79610  -1.00388   2.22223
C    -2.48316   0.65849  -2.23852
C    -0.47280   2.53246  -2.16575
H     0.67221  -2.20755   0.99400
H     3.87204  -2.74142  -0.30374
H     2.37884  -3.66582  -0.01367
H     3.99026  -3.67018   2.03722
H     3.02426  -2.10290   3.69453
H     2.29507  -0.03028   2.13063
H     0.97295  -0.90716   2.93650
H    -1.88497   0.10832  -2.95591
H    -3.13915  -0.02051  -1.70441
H    -3.06242   1.44140  -2.71416
H    -1.19148   3.15758  -2.68284
H     0.20177   3.14284  -1.57425
H     0.09146   1.91470  -2.85620
O     1.01972   1.26108   0.30388
