43

Pt    0.00000   0.00000   0.00000
N     0.85165   2.05699  -0.18185
N    -0.64358   0.66778  -1.99238
N     0.46289   0.24120  -4.47332
C     0.65567  -0.44641   1.90237
H     0.71823   0.50003   2.44828
H     1.63149  -0.93349   1.92792
H    -0.06096  -1.08123   2.42779
C    -0.76673  -1.91395  -0.06250
H    -0.83655  -2.21779  -1.11112
H    -1.76757  -1.92549   0.37374
H    -0.16087  -2.65192   0.46423
C     1.75723  -0.75615  -0.78727
H     2.59905  -0.16777  -0.41585
H     1.71738  -0.64793  -1.87369
H     1.94733  -1.80190  -0.55635
C     1.52070   2.76937   0.70998
H     1.73049   2.28645   1.65513
C     1.94038   4.06863   0.47706
H     2.47713   4.60792   1.24078
C     1.65373   4.65338  -0.74919
H     1.96386   5.66464  -0.96455
C     0.95951   3.91433  -1.68618
H     0.71044   4.32568  -2.65202
C     0.56695   2.61062  -1.37114
C    -0.19211   1.82074  -2.31377
H    -0.41020   2.27125  -3.28054
C    -1.31217  -0.11464  -2.91767
C    -2.50975  -0.72072  -2.60285
H    -2.96647  -0.52553  -1.64462
C    -3.15184  -1.55390  -3.52369
H    -4.09683  -1.99895  -3.25213
C    -2.59556  -1.80685  -4.74894
H    -3.08936  -2.45126  -5.46148
C    -1.36575  -1.21980  -5.10446
C    -0.73014  -1.43875  -6.34519
H    -1.19371  -2.10022  -7.06374
C     0.45969  -0.81869  -6.61363
H     0.97304  -0.96405  -7.55124
C     1.01961   0.01431  -5.63036
H     1.96574   0.51185  -5.80254
C    -0.71412  -0.34743  -4.19234
O    -1.36296   0.71325   0.59676
