44

Ti    0.00000   0.00000   0.00000
Cl   -0.21066   1.93809  -1.00502
Cl   -0.89326  -1.85302  -0.77205
N     1.60811  -0.38405  -1.38325
N     1.40358  -0.22213   1.19516
C     2.63606  -0.55312   0.73144
C     3.77349  -0.79880   1.49417
H     3.71461  -0.73069   2.57088
C     4.97895  -1.13039   0.87427
H     5.84261  -1.31859   1.49478
C     5.09350  -1.22109  -0.49177
H     6.03309  -1.47764  -0.95531
C     3.97166  -0.97373  -1.30626
C     2.74161  -0.64190  -0.69037
C     3.96823  -1.02823  -2.71590
H     4.87895  -1.27953  -3.24005
C     2.81310  -0.76065  -3.39732
H     2.79102  -0.79419  -4.47569
C     1.62760  -0.43445  -2.70375
C     1.19794  -0.08639   2.58751
C     1.30146   1.18054   3.17244
C     1.08594   1.30098   4.53483
H     1.16056   2.27457   4.99782
C     0.76327   0.19773   5.31718
C     0.63956  -1.04386   4.70959
H     0.36564  -1.90330   5.30471
C     0.84688  -1.20532   3.34788
C     0.38036  -0.11103  -3.45659
H    -0.49935  -0.47372  -2.91904
H     0.40562  -0.54884  -4.45173
H     0.29120   0.97349  -3.55266
C     1.59510   2.36221   2.29704
H     1.67887   3.26989   2.88870
H     0.78313   2.48810   1.56901
H     2.52361   2.21410   1.74103
C     0.66166  -2.52444   2.65948
H    -0.12049  -2.43078   1.89531
H     0.36883  -3.29301   3.36990
H     1.58105  -2.83645   2.15978
C     0.54523   0.36361   6.79055
H     0.17800  -0.55664   7.23659
H    -0.17547   1.15678   6.98065
H     1.47884   0.63773   7.28148
O    -1.22074   0.28633   1.07252
