57

Rh    0.00000   0.00000   0.00000
S    -0.67771  -0.93674   2.02641
P    -2.18463   0.27415  -0.43765
C     0.63410   0.66616  -1.58363
O     1.03473   1.07336  -2.57917
C    -0.65442   0.48153   3.11165
C    -1.18451   0.38175   4.38913
H    -1.61048  -0.55018   4.73086
C    -1.15244   1.48135   5.22824
H    -1.56802   1.40711   6.22220
C    -0.57650   2.66727   4.80168
H    -0.54980   3.52073   5.46238
C    -0.02359   2.75285   3.53436
H     0.43837   3.67081   3.20402
C    -0.06076   1.66074   2.68590
H     0.38799   1.70366   1.68940
C    -2.49465  -1.19497   1.90871
H    -2.59967  -2.17249   1.43900
H    -2.88704  -1.24911   2.92422
C    -3.17102  -0.10601   1.09829
H    -3.20330   0.81554   1.68875
H    -4.19735  -0.38359   0.84559
C    -2.90898   1.92910  -0.88159
H    -3.98095   1.93336  -0.64565
C    -2.18282   2.96518  -0.01849
H    -2.34451   2.76048   1.04355
H    -1.10709   2.87851  -0.21517
C    -2.64346   4.38284  -0.33951
H    -3.70723   4.48270  -0.10843
H    -2.09791   5.09510   0.28220
C    -2.41319   4.68962  -1.81476
H    -2.75569   5.69985  -2.04620
H    -1.34479   4.63706  -2.03308
C    -3.15616   3.67674  -2.67796
H    -2.98088   3.88626  -3.73476
H    -4.23031   3.76275  -2.49369
C    -2.70192   2.25346  -2.36005
H    -1.64020   2.14734  -2.59929
H    -3.26302   1.55666  -2.98536
C    -2.81478  -0.89942  -1.73139
H    -2.41296  -0.48078  -2.66481
C    -4.32592  -1.05751  -1.87265
H    -4.73783  -1.54133  -0.98402
H    -4.81059  -0.08515  -1.98630
C    -4.62444  -1.93385  -3.08936
H    -5.70384  -2.06173  -3.19622
H    -4.25587  -1.43869  -3.99065
C    -3.95260  -3.29809  -2.95004
H    -4.15262  -3.89892  -3.83902
H    -4.37820  -3.82338  -2.09135
C    -2.44512  -3.14777  -2.75347
H    -2.00380  -2.69319  -3.64281
H    -1.98902  -4.13008  -2.61860
C    -2.15989  -2.26923  -1.53996
H    -2.56596  -2.75687  -0.65049
H    -1.07465  -2.14215  -1.39782
O     1.53776  -0.35576   0.48086
