41

Nb    0.00000   0.00000   0.00000
N     0.46055  -0.03046   1.70247
C    -2.15524   1.07901   0.05136
N     1.50163   0.91502  -0.85017
C    -1.47228   0.42671  -2.02820
C    -2.42929  -0.30283  -0.09265
C    -2.00084  -0.69501  -1.37384
C    -1.56708   1.52731  -1.16138
C     0.59673  -0.26193   3.08739
C     2.88390   1.30652  -0.65808
C     3.36372   0.82534   0.71029
C     1.78431  -1.21091   3.33461
C    -0.70654  -0.94718   3.54962
C     3.73396   0.64521  -1.75591
C     0.78652   1.06014   3.85033
C     2.99409   2.83849  -0.74356
H    -2.52495   1.72037   0.84405
H    -1.13162   0.45528  -3.05591
H    -2.99663  -0.91167   0.60247
H    -2.13006  -1.67842  -1.80784
H    -1.36106   2.56228  -1.41153
H     4.41172   1.07535   0.85329
H     2.76352   1.29803   1.48453
H     3.22850  -0.25458   0.77441
H     1.76729  -1.58048   4.35617
H     2.72229  -0.69346   3.15840
H     1.71138  -2.04795   2.64177
H    -0.66356  -1.18613   4.60868
H    -1.54985  -0.28345   3.36513
H    -0.84279  -1.86340   2.97556
H     4.78945   0.84987  -1.59875
H     3.45410   1.01689  -2.74067
H     3.57382  -0.43197  -1.72814
H     0.80031   0.87948   4.92163
H     1.72219   1.52927   3.55841
H    -0.03035   1.73696   3.60881
H     4.01467   3.16011  -0.55567
H     2.33642   3.28539   0.00065
H     2.69692   3.19101  -1.72997
H     1.27623   1.12876  -1.82660
O     0.47360  -1.53677  -0.36953
