50

Au    0.00000   0.00000   0.00000
Cl   -1.87316  -0.83017   0.84005
P     2.09439  -0.36947  -2.09580
N     1.66196   0.68899  -0.89142
O     3.84058   0.55612  -0.93997
C     2.95192   2.10724   0.64995
C     4.10608   2.17779   1.42892
H     4.90469   1.47600   1.24123
C     4.19790   3.11662   2.43738
H     5.08386   3.16108   3.05307
C     3.14954   3.99401   2.66444
H     3.21900   4.72187   3.45950
C     2.00867   3.93971   1.87767
H     1.19503   4.62632   2.05750
C     1.90349   2.99918   0.87330
H     1.01776   2.94837   0.25681
C     2.86754   1.09097  -0.38538
C     0.43164  -0.64489  -2.74787
C    -0.61607  -0.41101  -1.85980
C    -1.91821  -0.54535  -2.30286
H    -2.73817  -0.37768  -1.62239
C    -2.16676  -0.91575  -3.61731
H    -3.18793  -1.01356  -3.95397
C    -1.12230  -1.16479  -4.49259
H    -1.32550  -1.46049  -5.51120
C     0.18390  -1.02919  -4.06090
H     1.01202  -1.20559  -4.73470
C     3.00659   0.35639  -3.46747
C     4.26766  -0.09454  -3.83164
H     4.72977  -0.89468  -3.27160
C     4.91662   0.50951  -4.89299
H     5.89677   0.16677  -5.18908
C     4.31537   1.55960  -5.57032
H     4.82932   2.02999  -6.39526
C     3.06216   2.01534  -5.19088
H     2.60275   2.83928  -5.71615
C     2.39890   1.41144  -4.13831
H     1.41764   1.74612  -3.82586
C     2.68745  -1.97346  -1.53790
C     2.90604  -2.96096  -2.49469
H     2.77431  -2.72971  -3.54337
C     3.29076  -4.22505  -2.09001
H     3.46765  -4.99539  -2.82591
C     3.44210  -4.50338  -0.73978
H     3.73962  -5.49307  -0.42696
C     3.20850  -3.52118   0.20925
H     3.31917  -3.74240   1.25981
C     2.82786  -2.24971  -0.18273
H     2.64596  -1.48324   0.55871
O     0.69973   0.14630   1.48710
