36

C     0.80342   2.40661   1.02280
C     1.29170   4.03393  -0.34366
H     1.55059   5.02309  -0.66044
C     1.08002   2.89273  -1.06884
H     1.12424   2.73211  -2.12814
C     0.28612  -0.43902   2.92819
C     0.64273  -1.76332   2.73908
H     1.03369  -2.08401   1.77735
C     0.88682  -4.04343   3.62812
H     1.21254  -4.37704   2.65455
C     0.77769  -4.92089   4.67071
H     1.02669  -5.96269   4.53472
C     0.33960  -4.47770   5.92812
H     0.26153  -5.18441   6.74109
C     0.01183  -3.16306   6.12467
H    -0.32849  -2.82057   7.09138
C    -0.21627  -0.86755   5.24230
H    -0.54714  -0.53206   6.21455
C    -0.12532   0.01137   4.20766
H    -0.38501   1.05264   4.32123
C     0.55416  -2.68199   3.79811
C     0.10888  -2.23398   5.07217
C     1.18407   4.60607   2.11027
H     1.62307   4.05055   2.94265
H     1.83072   5.44853   1.85470
C    -0.21002   5.09620   2.49150
H    -0.66234   5.64418   1.66812
H    -0.14757   5.75129   3.35545
H    -0.84588   4.25008   2.73921
Cl   -0.23149  -0.31117  -2.16944
N     0.34559   0.42794   1.85422
N     0.62952   1.66984   2.12884
N     0.77873   1.88529  -0.21539
N     1.12799   3.72094   0.97540
Pd    0.00000   0.00000   0.00000
O    -0.89824  -1.35234   0.29467
