33

Pd    0.00000   0.00000   0.00000
Cl    1.69967   0.80588  -1.31264
O    -0.73248   2.81711   0.81660
N     0.74490   1.18532   1.38196
N     2.44642   2.35630   2.19463
N     2.70998   0.01867   1.76909
C     2.01360   1.16045   1.76418
C     1.41774   3.34053   1.93157
C     0.30967   2.47207   1.31849
C     3.80029   2.70150   2.53531
H     1.75300   4.09789   1.21831
H     1.07664   3.83029   2.84740
H     3.71586   0.04303   1.76158
H     2.26187  -0.74222   1.24847
H     3.79115   3.63239   3.09919
H     4.23634   1.92238   3.16016
H     4.41560   2.83631   1.64011
N    -0.74567  -1.18239  -1.38385
C    -2.01415  -1.14757  -1.76614
N    -2.45398  -2.33801  -2.20443
C    -1.43074  -3.32979  -1.94884
C    -0.31681  -2.47184  -1.33104
O     0.72451  -2.82656  -0.83464
H    -1.76963  -4.08996  -1.24028
H    -1.09334  -3.81546  -2.86820
C    -3.80984  -2.67292  -2.54750
H    -3.80634  -3.60134  -3.11540
H    -4.24050  -1.88831  -3.16919
H    -4.42667  -2.80773  -1.65335
N    -2.70384  -0.00176  -1.76381
H    -3.70985  -0.02023  -1.75761
H    -2.25161   0.75366  -1.23845
O    -1.22192  -0.58101   0.94437
