42

Au    0.00000   0.00000   0.00000
N    -2.71920  -0.22056   1.02847
N    -2.34857   1.82401   0.08196
C    -1.87008   0.58915   0.42481
C    -3.94711   0.19507   1.69844
H    -3.84244  -0.05529   2.75836
H    -4.77965  -0.39735   1.30183
C    -4.25169   1.68491   1.51636
H    -5.32979   1.82915   1.63450
C    -3.78950   1.99701   0.10047
H    -4.23238   1.30782  -0.62360
H    -4.02552   3.01847  -0.19961
C    -3.54044   2.66357   2.46944
H    -3.72092   2.36746   3.50499
H    -4.00868   3.64069   2.32302
C    -2.02850   2.81201   2.24336
H    -1.67206   3.69232   2.77893
H    -1.50833   1.94181   2.65066
C    -1.67523   2.91622   0.75235
H    -2.01048   3.86240   0.32297
H    -0.59797   2.81334   0.60576
C    -2.40767  -1.61005   1.15719
C    -1.78792  -2.10191   2.30343
C    -1.52667  -3.46339   2.38028
H    -1.03869  -3.85018   3.26286
C    -1.85907  -4.32817   1.35086
C    -2.46486  -3.80758   0.21409
H    -2.71412  -4.46970  -0.60212
C    -2.74357  -2.45719   0.09816
C    -1.38296  -1.20028   3.43020
H    -2.20908  -1.04975   4.12715
H    -1.06128  -0.23168   3.05404
H    -0.55816  -1.64227   3.98236
C    -1.56452  -5.79308   1.43992
H    -1.05848  -6.03461   2.37034
H    -0.93058  -6.09830   0.60942
H    -2.48723  -6.36943   1.38431
C    -3.36732  -1.90459  -1.14777
H    -3.51124  -2.69217  -1.88173
H    -2.72313  -1.13973  -1.58154
H    -4.33662  -1.45247  -0.93614
O     1.53387  -0.51167  -0.32853
