38

Pd    0.00000   0.00000   0.00000
Cl    1.18945  -1.83495   0.48590
N     1.61557   1.17442   0.38262
N     2.08152   2.04953  -0.51325
N    -1.02188   1.77570  -1.05066
C     2.35821   1.27235   1.47425
C     3.34215   2.25148   1.26274
H     4.10081   2.55922   1.95220
C     3.13458   2.73630  -0.01196
C     2.08323   0.45737   2.68452
H     1.07639   0.03025   2.61573
H     2.17130   1.06482   3.58297
H     2.79152  -0.36736   2.74876
C     3.86301   3.78209  -0.77447
H     4.28535   3.36990  -1.69063
H     4.67450   4.17070  -0.16642
H     3.20330   4.60819  -1.04049
C     1.33950   2.24249  -1.72783
H     1.23521   1.26546  -2.22514
H     1.89456   2.91912  -2.37828
C    -0.05433   2.81913  -1.40555
H     0.05314   3.51082  -0.56515
H    -0.40726   3.39655  -2.26847
C    -1.62425   1.18207  -2.26248
H    -2.19750   0.30787  -1.93771
H    -0.81219   0.82523  -2.90682
C    -2.54298   2.09808  -3.07255
H    -2.93331   1.53116  -3.91322
H    -2.02677   2.96855  -3.47334
H    -3.38619   2.43725  -2.47735
C    -2.05082   2.26530  -0.12272
H    -2.89277   1.57205  -0.18251
H    -2.39207   3.26902  -0.41335
C    -1.56173   2.27933   1.32298
H    -2.36563   2.60914   1.97648
H    -0.71163   2.94685   1.46388
H    -1.27486   1.25526   1.61933
O    -1.35897  -0.92737  -0.12517
