50

Rh    0.00000   0.00000   0.00000
Cl    1.10410   0.60621  -1.95694
O     1.78073  -0.50636   0.78994
O    -0.30933   2.65595   0.59123
N     0.45345   1.69244   0.72494
N    -1.76597   0.59239  -0.76542
N    -0.34565  -1.95625  -0.73707
C     2.31821   0.48739   1.36063
C     3.59201   0.39149   2.00200
C     4.13705   1.48159   2.58942
C     3.48746   2.75192   2.60165
C     4.09199   3.85436   3.22056
C     3.47297   5.08151   3.23683
C     2.22832   5.23453   2.63123
C     1.60985   4.16919   2.01514
C     2.22122   2.90993   1.98541
C     1.63745   1.75070   1.36005
C    -2.06027   0.39981  -2.05332
C    -3.23827   0.84048  -2.62176
C    -4.17659   1.51361  -1.84508
C    -3.86015   1.69560  -0.50366
C    -2.65918   1.22899  -0.00592
C    -5.44751   2.03383  -2.42839
C     0.67762  -2.59993  -1.29745
C     0.61039  -3.93023  -1.66483
C    -0.56074  -4.64943  -1.45006
C    -1.61946  -3.96474  -0.86162
C    -1.47237  -2.63394  -0.52137
C    -0.68160  -6.08140  -1.85338
H     4.08681  -0.56720   1.99444
H     5.10165   1.40859   3.07254
H     5.05805   3.72339   3.68695
H     3.94785   5.92465   3.71622
H     1.74177   6.19858   2.64353
H     0.64731   4.30131   1.54834
H    -1.31672  -0.10326  -2.65722
H    -3.41854   0.66442  -3.67099
H    -4.54348   2.20482   0.15770
H    -2.41372   1.36040   1.03865
H    -5.29190   3.05240  -2.78466
H    -6.23704   2.05683  -1.68143
H    -5.76602   1.42759  -3.27278
H     1.57772  -2.02282  -1.46430
H     1.46981  -4.40391  -2.11360
H    -2.55395  -4.46618  -0.66181
H    -2.28127  -2.09722  -0.04265
H    -0.98617  -6.14106  -2.89880
H    -1.42965  -6.59344  -1.25359
H     0.27227  -6.59347  -1.75359
O    -0.71950  -0.44526   1.41653
