25

Re    0.00000   0.00000   0.00000
Cl   -1.05174   2.02930   0.23838
S     1.56260  -1.71882   0.59725
S     1.95514   1.17247  -1.16831
O    -0.44636  -0.70077  -1.43243
N     1.20375   1.01254   1.74260
C     1.04205   0.60563   2.99913
H     0.34246  -0.20665   3.14736
C     1.72376   1.17589   4.05847
H     1.55462   0.81638   5.05984
C     2.62129   2.20026   3.80141
H     3.17929   2.66377   4.60039
C     2.79130   2.61989   2.49315
H     3.47598   3.41677   2.24820
C     2.05260   2.01082   1.48642
C     2.15560   2.49493   0.07409
H     3.09371   3.01564  -0.11482
H     1.30989   3.16116  -0.13132
C     3.31498   0.01676  -0.69916
H     4.10233   0.15518  -1.44082
H     3.67686   0.30176   0.28805
C     2.81639  -1.41412  -0.69912
H     3.63688  -2.09822  -0.48063
H     2.37265  -1.67228  -1.66162
O    -1.10016  -0.60577   1.07013
