49

Zn    0.00000   0.00000   0.00000
Cl    0.61781   2.05228   0.42040
N    -2.18960  -2.76426   1.32295
N    -1.15568  -0.90059   1.46904
N    -1.00935  -2.15945   1.31730
C    -3.18464  -1.83870   1.48399
C    -2.26418  -4.14072   1.08457
C    -1.34239  -4.71617   0.21520
H    -0.60623  -4.09514  -0.26863
C    -2.48556  -0.61438   1.57803
C    -5.22251  -0.67272   1.64433
H    -6.30176  -0.65632   1.65771
C    -4.52980   0.54204   1.75792
H    -5.09807   1.45374   1.85923
C    -4.57459  -1.87916   1.50305
H    -5.12049  -2.80162   1.38805
C    -3.21546  -4.94393   1.70178
H    -3.92470  -4.53858   2.40517
C    -1.42775  -6.08192   0.00031
H    -0.74050  -6.58341  -0.66791
C    -3.15732   0.59849   1.72217
H    -2.60917   1.52500   1.78155
N    -2.33343  -6.85464   0.57540
C    -3.20008  -6.29833   1.40112
H    -3.91707  -6.97143   1.85139
N     2.55564  -2.98796  -1.03341
N     1.69475  -1.16390  -0.33401
N     1.58311  -2.43220  -0.31610
C     3.36704  -2.01116  -1.54782
C     2.60552  -4.38001  -1.17336
C     2.14753  -5.18060  -0.13093
H     1.77371  -4.73097   0.77422
C     2.78338  -0.81235  -1.07613
C     5.06364  -0.75511  -2.59003
H     5.96839  -0.69617  -3.17582
C     4.47047   0.43578  -2.14446
H     4.93325   1.37409  -2.40780
C     4.53554  -1.99401  -2.30267
H     5.01691  -2.89993  -2.63397
C     3.06674  -4.98094  -2.33880
H     3.38643  -4.39615  -3.18531
C     2.18789  -6.55445  -0.30655
H     1.84309  -7.22269   0.47055
C     3.33100   0.43467  -1.37626
H     2.86970   1.33717  -1.00832
N     2.64081  -7.13528  -1.40378
C     3.06400  -6.36741  -2.39031
H     3.41346  -6.88644  -3.27232
O    -0.94120  -0.56818  -1.23037
