64

Pd    0.00000   0.00000   0.00000
P     0.67408   1.67722   1.31172
O    -2.27845   4.22369  -5.19784
N    -0.68480  -1.45838  -1.24630
C    -0.86522   1.17084  -1.38867
C    -1.17033   0.40611  -2.54531
C    -1.58143   1.00280  -3.73064
H    -1.79902   0.39469  -4.59920
C    -1.70795   2.38669  -3.80171
C    -1.43223   3.15110  -2.66221
H    -1.55021   4.22311  -2.72807
C    -1.01656   2.55322  -1.48866
H    -0.82081   3.18489  -0.62932
C    -2.13130   3.03629  -5.03968
H    -2.31943   2.32634  -5.87244
C    -1.11669  -1.02769  -2.36743
H    -1.50086  -1.68561  -3.14668
C    -0.78762  -2.81340  -0.77603
H     0.20858  -3.09852  -0.40552
C    -1.73885  -2.77021   0.43543
H    -1.38597  -1.99878   1.14360
H    -2.73999  -2.49170   0.08956
C    -1.77782  -4.13380   1.11317
H    -2.46498  -4.10480   1.96093
H    -0.78269  -4.37060   1.49416
C    -2.21839  -5.20578   0.11979
H    -2.21174  -6.18434   0.60305
H    -3.24177  -5.00087  -0.20492
C    -1.29682  -5.22575  -1.09685
H    -1.63489  -5.98289  -1.80739
H    -0.28554  -5.49061  -0.78087
C    -1.26983  -3.85895  -1.77856
H    -0.60278  -3.88926  -2.64410
H    -2.27725  -3.61030  -2.12416
C     1.69201   2.75190   0.24477
C     2.35246   2.07264  -0.77943
H     2.21669   0.98782  -0.87719
C     3.16309   2.75957  -1.66247
H     3.67521   2.23081  -2.45271
C     3.30944   4.13265  -1.53767
H     3.93494   4.67372  -2.23178
C     2.64621   4.81248  -0.53054
H     2.75314   5.88364  -0.44169
C     1.84072   4.12688   0.36324
H     1.31387   4.66937   1.13391
C    -0.69990   2.62414   2.04090
C    -1.97753   2.12204   1.80517
H    -2.08294   1.22662   1.18607
C    -3.08605   2.74512   2.34750
H    -4.07436   2.35296   2.15919
C    -2.92551   3.87302   3.13636
H    -3.78894   4.36569   3.55789
C    -1.65564   4.36166   3.39727
H    -1.53082   5.23039   4.02713
C    -0.54373   3.73666   2.86085
H     0.44269   4.11007   3.09560
C     1.79664   1.44969   2.75569
H     2.65279   0.86786   2.40177
H     2.15244   2.43514   3.07491
C     1.09286   0.71228   3.88718
H     1.77989   0.54203   4.71318
H     0.74187  -0.25412   3.52754
H     0.23871   1.28034   4.25391
O     0.97585  -1.01871   0.85583
