23

I     0.76100  -0.83872  -2.23756
Zn    0.00000   0.00000   0.00000
N     1.25678   1.69456   0.43057
C     0.69648   2.89330   0.24028
C     1.41319   4.06288   0.48995
C     2.50455   1.61115   0.86060
C     3.28263   2.72408   1.13153
C     2.71912   3.97488   0.94001
H     0.96676   5.03122   0.33848
H     2.89701   0.61135   0.99349
H     4.29544   2.60896   1.48086
H     3.28644   4.87168   1.13760
N    -1.25701   1.69456  -0.42990
C    -0.69672   2.89330  -0.23957
C    -1.41345   4.06288  -0.48918
C    -2.50479   1.61115  -0.85990
C    -3.28288   2.72408  -1.13078
C    -2.71939   3.97489  -0.93923
H    -0.96703   5.03122  -0.33769
H    -2.89723   0.61135  -0.99284
H    -4.29569   2.60896  -1.48012
H    -3.28671   4.87169  -1.13680
O    -0.50075  -0.55149   1.47228
