57

Ti    0.00000   0.00000   0.00000
Cl   -0.60076   0.00138   2.17001
P     2.21426   0.69326   1.00892
N     1.08106  -1.48232  -0.38748
N     0.35037   1.53101  -1.05485
C     3.05070  -0.66830   1.93590
H     4.09576  -0.40782   2.13390
H     2.52269  -0.74669   2.89364
C     2.96114  -1.99269   1.17813
H     3.61258  -1.95645   0.30143
H     3.31083  -2.80106   1.82573
C     1.52127  -2.30524   0.72384
H     1.44645  -3.36849   0.45290
H     0.84243  -2.13362   1.57367
C     1.31099  -1.92973  -1.66613
C     2.22763  -2.94523  -1.99145
H     2.79530  -3.44145  -1.21894
C     2.42501  -3.33575  -3.30219
H     3.13770  -4.12011  -3.51395
C     1.72722  -2.73895  -4.33689
H     1.88707  -3.04952  -5.35767
C     0.80787  -1.74455  -4.03747
H     0.23781  -1.28170  -4.83019
C     0.59965  -1.34303  -2.73396
H    -0.15755  -0.59022  -2.51918
C     3.37779   1.00527  -0.39468
H     4.36576   1.28751  -0.01692
H     3.46834   0.08756  -0.98512
C     2.79658   2.12416  -1.25655
H     3.51325   2.39877  -2.03531
H     2.62524   3.00052  -0.62435
C     1.48057   1.70472  -1.94649
H     1.23002   2.44840  -2.71715
H     1.66448   0.75112  -2.45951
C    -0.32196   2.65576  -0.63005
C    -1.51409   2.47631   0.10558
H    -1.92015   1.47256   0.23402
C    -2.20752   3.55274   0.61856
H    -3.11296   3.37915   1.18186
C    -1.76155   4.84913   0.40541
H    -2.30435   5.68911   0.81035
C    -0.62517   5.04730  -0.35745
H    -0.27904   6.05119  -0.55827
C     0.08604   3.97911  -0.87092
H     0.96034   4.18784  -1.46777
C     2.53493   2.14632   2.06813
C     1.44053   2.94167   2.39592
H     0.45320   2.65033   2.05600
C     1.61220   4.08383   3.15790
H     0.75937   4.69854   3.40321
C     2.87606   4.43441   3.60264
H     3.01339   5.32531   4.19724
C     3.96803   3.64102   3.28696
H     4.95271   3.91347   3.63812
C     3.80233   2.50253   2.52001
H     4.66157   1.89343   2.27619
O    -1.42149  -0.69711  -0.46465
