41

Pt    0.00000   0.00000   0.00000
S     1.73134   0.10744   1.51537
O     2.21520   1.26930   2.22728
C     1.29643  -1.12314   2.84317
H     2.20490  -1.27311   3.42486
H     0.55167  -0.62599   3.46638
Cl   -1.73436  -0.21561  -1.42205
S    -0.55695  -2.01136   0.98490
O    -0.79608  -3.26715   0.30764
C     0.77116  -2.39015   2.23667
H     0.32166  -3.05883   2.96923
H     1.54005  -2.92986   1.68241
C     3.13391  -0.76838   0.82002
C     4.38121  -0.69010   1.41087
H     4.50982  -0.07926   2.29129
C     5.43973  -1.37790   0.84520
H     6.41773  -1.31889   1.29938
C     5.26082  -2.13768  -0.30667
C     3.99823  -2.18835  -0.89398
H     3.85228  -2.76146  -1.79693
C     2.93616  -1.50155  -0.33805
H     1.95722  -1.51876  -0.81220
C     6.40858  -2.86413  -0.93278
H     6.09661  -3.84225  -1.29198
H     7.22661  -2.98748  -0.22795
H     6.77831  -2.29866  -1.78811
C    -1.89963  -1.70401   2.13189
C    -2.63327  -2.74669   2.66509
H    -2.40173  -3.75860   2.36956
C    -3.66382  -2.46485   3.54403
H    -4.24516  -3.27407   3.96055
C    -3.96664  -1.15152   3.88798
C    -3.22195  -0.11609   3.32616
H    -3.46172   0.90714   3.57258
C    -2.19319  -0.38776   2.44544
H    -1.63352   0.42020   1.97791
C    -5.07543  -0.84024   4.84255
H    -5.66670  -1.72561   5.05957
H    -5.72738  -0.07285   4.43013
H    -4.66693  -0.45931   5.77850
O     0.42958   1.44937  -0.66128
