53

C     1.32718   1.65446   1.05308
H     1.75535   2.58751   0.70366
C     2.09837   0.49569   1.03306
C     1.53293  -0.69875   1.57175
H     2.15669  -1.58593   1.61827
C     0.25397  -0.73452   2.13618
C    -0.56966   0.43537   2.00183
C    -0.02880   1.64723   1.48447
C    -1.89342  -0.54906  -0.07942
C    -3.91359  -0.74011   0.88658
C    -3.99359  -1.20751  -0.43726
C    -5.18667  -1.69222  -0.95075
H    -5.25503  -2.05654  -1.96266
C    -6.28487  -1.69237  -0.10937
H    -7.22977  -2.06298  -0.47555
C    -6.20371  -1.22572   1.20033
H    -7.08623  -1.24225   1.82118
C    -5.01815  -0.74092   1.72330
H    -4.95921  -0.37802   2.73756
C    -2.05500   0.29070   2.25095
H    -2.26081  -0.33011   3.12969
H    -2.53852   1.26314   2.39398
C    -0.81997   2.92471   1.44133
H    -1.56856   2.88140   0.64842
H    -0.16330   3.76366   1.22364
H    -1.31876   3.11455   2.39209
C     3.51004   0.48051   0.52858
H     3.63047  -0.30448  -0.21846
H     4.20219   0.27777   1.34747
H     3.77098   1.43340   0.07407
C    -0.23652  -1.96952   2.84010
H     0.52994  -2.74066   2.82016
H    -1.13099  -2.37471   2.36786
H    -0.46881  -1.74036   3.88178
C    -2.40912  -1.41801  -2.34402
H    -1.51821  -0.86006  -2.64532
H    -3.23970  -1.14532  -2.99840
C    -2.14719  -2.92361  -2.48122
H    -1.12282  -3.14055  -2.15293
H    -2.84951  -3.49038  -1.84462
C    -1.65086  -4.45192  -4.20991
H    -2.04411  -5.31119  -3.64202
H    -0.58037  -4.35122  -3.97848
C    -1.85347  -4.66614  -5.70096
H    -1.33549  -5.56596  -6.02064
H    -1.46269  -3.81308  -6.24766
H    -2.91265  -4.76377  -5.92270
Cl    0.83442  -1.61028  -1.47853
N    -2.60962  -0.34511   1.06790
N    -2.73951  -1.05799  -0.98961
Ru    0.00000   0.00000   0.00000
O    -2.33006  -3.27335  -3.83122
O    -0.31558   1.01689  -1.26050
