51

Mn    0.00000   0.00000   0.00000
N     1.54787   0.95534  -0.99935
N     0.19788   1.66712   1.06695
O     1.31154  -1.09061   1.63594
O     0.47383  -1.39795  -0.92465
O     0.01717  -3.79189  -1.95111
O    -1.33587  -0.47409   1.00371
O    -3.00711  -2.18494   2.14209
C    -0.37843  -5.00795  -2.53423
H    -0.97189  -4.84339  -3.43870
H    -0.99172  -5.50844  -1.78655
H     0.48494  -5.63802  -2.77526
C     0.72565  -2.91316  -2.71554
C     1.22345  -3.15744  -3.97285
H     1.05668  -4.10727  -4.45565
C     1.96054  -2.17572  -4.65222
H     2.34163  -2.40232  -5.63603
C     2.19325  -0.95638  -4.08412
H     2.76702  -0.20602  -4.60660
C     1.69069  -0.65255  -2.80083
C     0.93695  -1.64001  -2.10128
C     1.91038   0.61209  -2.21310
H     2.40978   1.34786  -2.84027
C     1.87650   2.20090  -0.50029
C     2.89908   3.02752  -0.97206
H     3.55937   2.68498  -1.75382
C     3.08318   4.28154  -0.42971
H     3.87181   4.91716  -0.80235
C     2.24660   4.73391   0.58338
H     2.37222   5.72982   0.98011
C     1.26206   3.91559   1.09613
H     0.62172   4.29769   1.87559
C     1.08773   2.62092   0.59868
C    -0.39825   1.85042   2.23453
H    -0.11330   2.71717   2.82501
C    -1.36525   1.01933   2.82091
C    -1.94537   1.34970   4.07091
H    -1.64558   2.26967   4.54993
C    -2.86433   0.53169   4.65325
H    -3.30531   0.79145   5.60316
C    -3.25556  -0.67228   4.03646
H    -3.97646  -1.29876   4.53709
C    -2.73331  -1.03541   2.82353
C    -1.78693  -0.18135   2.16170
C    -4.00536  -3.03353   2.64778
H    -3.72409  -3.44983   3.62180
H    -4.10048  -3.84145   1.92415
H    -4.96430  -2.51398   2.73960
H     0.68446  -1.34657   2.32216
H     1.60562  -1.90678   1.21399
O    -1.00892   0.70539  -1.09863
