69

Au    0.00000   0.00000   0.00000
C    -1.66477   3.76951  -1.60078
H    -0.57922   3.73011  -1.74791
C     3.05246   1.08208  -0.80985
N     2.44474   3.32952  -0.29816
N     2.11922   2.05936  -0.37827
C     0.84637   1.78831  -0.01017
N     1.36500   3.92673   0.13447
C    -0.97563   3.43033   0.80864
C    -1.24658   3.39058   2.17853
C    -2.18488   5.01890  -2.31427
H    -1.85246   5.92311  -1.80665
H    -3.27044   5.02635  -2.35101
H    -1.81540   5.04154  -3.33716
C     2.10852   1.31866  -3.15406
H     1.48924   2.06960  -2.65298
C    -1.95812   3.78912  -0.11846
C     4.80750  -0.86333  -1.62706
H     5.49399  -1.63262  -1.94728
C     3.05702   0.70518  -2.15262
C     4.77707  -0.47974  -0.29994
H     5.43639  -0.95827   0.40653
C    -3.22333   4.11100   0.35056
H    -4.00264   4.37822  -0.34544
C     1.33761   5.34159   0.35651
H     2.30105   5.75082   0.06027
H     1.15383   5.54925   1.41164
H     0.54025   5.79483  -0.23353
C    -0.52060   1.54629   3.67237
H     0.24942   1.20161   4.35880
H    -0.57871   0.84963   2.83731
H    -1.47618   1.54060   4.19027
C    -3.50239   4.08066   1.70377
H    -4.49329   4.32924   2.05364
C     3.95664  -0.27715  -2.54381
H     3.98463  -0.59448  -3.57419
C    -0.19055   2.95243   3.16613
H     0.77662   2.90169   2.65310
C     2.88193   2.02278  -4.27128
H     2.18896   2.50964  -4.95379
H     3.47758   1.31306  -4.83870
H     3.54803   2.77646  -3.85574
C     0.35625   3.04447   0.32867
C    -2.52334   3.72103   2.60981
H    -2.76012   3.68736   3.66161
C    -2.26340   2.50125  -2.21482
H    -2.03771   2.45327  -3.27780
H    -3.34281   2.48999  -2.08709
H    -1.85218   1.61625  -1.73098
C     3.17860  -0.24451   2.38728
H     2.18980  -0.46617   1.98775
H     3.07609   0.03785   3.43265
H     3.77940  -1.14824   2.32903
C     3.90101   0.50468   0.13536
C     3.83351   0.88939   1.59386
H     3.20932   1.78217   1.70248
C     5.21538   1.22856   2.15496
H     5.69577   1.99183   1.54642
H     5.85605   0.35180   2.17980
H     5.11922   1.60485   3.17104
C     1.17100   0.24868  -3.71744
H     0.44408   0.70345  -4.38647
H     0.63491  -0.24646  -2.90933
H     1.72630  -0.50297  -4.27151
C    -0.05126   3.93478   4.33094
H     0.80320   3.66167   4.94618
H    -0.93598   3.92300   4.96103
H     0.09551   4.95055   3.96680
O    -0.68979  -1.49889  -0.00439
