51

C     1.15574  -1.29538   3.14182
H     0.31743  -1.59132   2.53038
C     3.49229  -0.75904   3.34121
H     4.46304  -0.60076   2.89481
C     2.06798  -0.66854   5.27029
H     1.93500  -0.47787   6.32443
C     3.31642  -0.51684   4.69118
H     4.15752  -0.20164   5.29075
C     0.98861  -1.05373   4.49150
H     0.01136  -1.16284   4.93611
Au    0.00000   0.00000   0.00000
C     1.70274  -1.01141   0.09181
C     4.70040  -2.73112   1.16775
H     4.97487  -3.58635   0.55172
H     4.42369  -3.05900   2.16865
H     5.55750  -2.05810   1.22974
C     0.52274  -2.18364  -4.13640
H    -0.14504  -2.91927  -4.55593
N     3.58459  -2.07407   0.55076
C     0.99385  -2.34468  -2.84070
N     2.32579  -1.49897  -1.00351
N     3.44222  -2.13811  -0.74761
C     2.55582  -1.39944   1.12697
C     2.41309  -1.15775   2.55464
C     1.72945  -0.12562  -4.36471
H     1.99702   0.73194  -4.96146
C     1.84700  -1.36448  -2.33314
C     0.55794  -3.52718  -2.00981
H     1.06512  -3.49594  -1.04007
C     2.22376  -0.24348  -3.07295
C     3.11173   0.83045  -2.49289
H     3.40888   0.54644  -1.47820
C     0.93806  -4.84456  -2.68904
H     0.67528  -5.68265  -2.04750
H     2.00840  -4.87671  -2.88232
H     0.41432  -4.96167  -3.63352
C     0.88981  -1.08726  -4.89234
H     0.51067  -0.97650  -5.89708
C     2.34126   2.14934  -2.39743
H     2.95455   2.90671  -1.91445
H     1.43313   2.01377  -1.81222
H     2.06249   2.50883  -3.38414
C     4.38695   0.99111  -3.32336
H     4.91836   0.04374  -3.39044
H     5.04199   1.72540  -2.85993
H     4.15592   1.32786  -4.33023
C    -0.94840  -3.45126  -1.74942
H    -1.25637  -4.26190  -1.09288
H    -1.50654  -3.52850  -2.67838
H    -1.20212  -2.50420  -1.27562
O    -1.42141   0.82871  -0.12377
