69

Ni    0.00000   0.00000   0.00000
N     1.82638  -1.54886   1.65701
N     2.88235  -0.43012   0.14282
C     1.65888  -0.69154   0.63502
C     0.68640  -2.00356   2.43506
H    -0.18530  -1.68357   1.83717
C     0.62935  -3.52144   2.56687
H    -0.36634  -3.81409   2.89095
H     1.34389  -3.89215   3.29548
H     0.82440  -3.98639   1.60319
C     0.61673  -1.27826   3.77674
H    -0.29260  -1.56379   4.29914
H     0.59597  -0.20405   3.60469
H     1.46805  -1.51777   4.40882
C     3.16575  -1.82939   1.81734
C     3.73468  -2.73744   2.85086
H     4.79884  -2.54461   2.95879
H     3.60322  -3.78246   2.56874
H     3.26495  -2.57769   3.81775
C     3.83159  -1.13360   0.85182
C     5.29670  -1.10333   0.58911
H     5.74947  -0.19901   0.99673
H     5.50682  -1.14658  -0.47625
H     5.76833  -1.96236   1.05922
C     3.04759   0.45406  -0.99854
H     2.06129   0.93976  -1.10061
C     4.08129   1.54773  -0.75250
H     3.93495   1.98398   0.23301
H     3.95368   2.33218  -1.49446
H     5.09659   1.17103  -0.83107
C     3.30595  -0.34274  -2.27498
H     2.49934  -1.05796  -2.42271
H     4.24956  -0.88047  -2.22952
H     3.33335   0.33158  -3.12699
Cl   -0.09556  -1.56337  -1.43911
N    -1.82630   1.54885  -1.65717
N    -2.88231   0.42991  -0.14315
C    -1.65883   0.69142  -0.63527
C    -0.68630   2.00371  -2.43510
H     0.18540   1.68374  -1.83720
C    -0.62934   3.52160  -2.56677
H     0.36635   3.81434  -2.89080
H    -1.34387   3.89234  -3.29538
H    -0.82444   3.98646  -1.60306
C    -0.61652   1.27853  -3.77684
H     0.29282   1.56416  -4.29917
H    -0.59571   0.20431  -3.60486
H    -1.46783   1.51804  -4.40894
C    -3.16567   1.82935  -1.81752
C    -3.73459   2.73749  -2.85097
H    -4.79875   2.54462  -2.95897
H    -3.60320   3.78249  -2.56875
H    -3.26482   2.57785  -3.81786
C    -3.83153   1.13345  -0.85210
C    -5.29665   1.10311  -0.58944
H    -5.74938   0.19882  -0.99715
H    -5.50680   1.14627   0.47592
H    -5.76829   1.96217  -1.05948
C    -3.04755  -0.45437   0.99813
H    -2.06124  -0.94006   1.10016
C    -4.08122  -1.54804   0.75197
H    -3.93486  -1.98418  -0.23358
H    -3.95360  -2.33256   1.49385
H    -5.09653  -1.17136   0.83057
C    -3.30594   0.34231   2.27464
H    -2.49936   1.05754   2.42245
H    -4.24957   0.88002   2.22921
H    -3.33335  -0.33208   3.12659
O     0.07418   1.21284   1.11625
