29

Mo    0.00000   0.00000   0.00000
Cl   -0.71056   0.56790  -2.05629
O    -1.11654   0.64087   1.02998
O     1.37010   0.91819   0.05523
N     1.76289  -1.47462  -1.10201
N     0.93505  -1.16679   1.76033
C     1.41173  -2.71202  -1.80242
C     2.47861  -0.62249  -2.05704
C     2.63400  -1.76590   0.04295
C     1.83462  -2.22066   1.26424
C     1.67969  -0.18459   2.55886
C    -0.06493  -1.76450   2.65467
H     0.71862  -2.48179  -2.61113
H     2.30868  -3.18323  -2.22726
H     0.92165  -3.41700  -1.13491
H     1.84394  -0.44323  -2.92416
H     3.41039  -1.10018  -2.38764
H     2.70243   0.33729  -1.59293
H     3.36746  -2.54648  -0.21677
H     3.17986  -0.85198   0.28831
H     1.21953  -3.08315   0.99039
H     2.52992  -2.52674   2.05997
H     2.43002   0.31254   1.94710
H     0.98396   0.58182   2.90161
H     2.15604  -0.67172   3.41910
H    -0.63850  -2.52675   2.12819
H    -0.75412  -0.98372   2.97810
H     0.42285  -2.21386   3.52740
O    -0.80049  -1.43128  -0.18206
