45

Mo    0.00000   0.00000   0.00000
Cl   -1.67990  -1.40481   0.83058
O    -2.07586   0.71085  -1.36353
O    -0.50845  -1.56962  -1.97898
N     1.41558  -0.87760   0.51538
N    -0.10536   1.29560   1.16152
C     2.51984  -0.92070   1.37661
C     2.60083   0.45090   2.11547
H     3.49754   0.44771   2.73846
H     2.73386   1.19676   1.32866
C     1.38311   0.82519   2.97577
H     1.72466   1.22593   3.93231
H     0.78772  -0.06903   3.17282
C     0.39179   1.85270   2.34700
C     3.81476  -1.09743   0.55968
H     3.79759  -2.05132   0.03739
H     4.68455  -1.06634   1.21057
H     3.88857  -0.30079  -0.17867
C     2.37909  -2.09423   2.36230
H     1.38878  -2.08793   2.81243
H     3.13272  -2.02395   3.14188
H     2.50185  -3.03575   1.83198
C     1.07431   3.20081   2.05485
H     1.76373   3.09796   1.21968
H     1.61500   3.54715   2.93140
H     0.32459   3.94037   1.78339
C    -0.76033   2.07421   3.34644
H    -1.46824   2.79513   2.94391
H    -0.37822   2.44494   4.29394
H    -1.28214   1.13316   3.51185
C    -2.08968   0.09191  -2.63395
H    -1.30729   0.52771  -3.27606
H    -3.07365   0.23878  -3.10559
C    -1.82992  -1.39815  -2.44949
H    -2.54725  -1.81174  -1.72234
H    -1.94822  -1.91504  -3.41443
C    -2.29394   2.10560  -1.42996
H    -1.50648   2.59929  -2.01186
H    -2.27452   2.47008  -0.40337
H    -3.27146   2.31366  -1.88202
C    -0.17712  -2.92548  -1.75682
H    -0.82841  -3.36921  -0.99439
H     0.85522  -2.93737  -1.40881
H    -0.26356  -3.49327  -2.69129
O     0.63643   0.81755  -1.28417
