60

Ir    0.00000   0.00000   0.00000
H     0.98197  -1.14526   0.24288
C    -0.30378  -0.67493  -1.85147
C    -0.70440  -0.99775  -2.94998
Si   -1.35639  -1.44006  -4.62757
C    -2.63841  -0.05800  -5.04885
H    -2.12651   0.89520  -4.87301
C    -3.09244  -0.06569  -6.50669
H    -3.74746   0.78285  -6.70736
H    -3.64183  -0.97419  -6.73973
H    -2.24040   0.00027  -7.17873
C    -3.85128  -0.08850  -4.12457
H    -4.50178   0.76705  -4.30831
H    -3.54052  -0.06243  -3.08219
H    -4.43543  -0.99098  -4.28720
C     0.09844  -1.35868  -5.87420
H    -0.25517  -1.58917  -6.88492
C     0.70636   0.04094  -5.89638
H     1.54343   0.08542  -6.59234
H     1.07157   0.30389  -4.90615
H    -0.02603   0.78472  -6.20051
C     1.17877  -2.37418  -5.51544
H     2.02276  -2.29380  -6.19972
H     0.79634  -3.39016  -5.57039
H     1.53860  -2.19726  -4.50466
C    -2.05498  -3.23036  -4.50895
H    -1.19107  -3.90236  -4.52173
C    -2.95098  -3.61751  -5.68292
H    -3.21729  -4.67340  -5.62972
H    -2.44916  -3.44308  -6.63235
H    -3.87464  -3.04212  -5.66821
C    -2.77849  -3.47698  -3.18783
H    -3.09240  -4.51791  -3.11254
H    -3.66453  -2.85178  -3.10705
H    -2.12357  -3.25245  -2.34969
C     1.40431   1.11197  -0.47292
O     2.26197   1.84061  -0.67710
N    -1.55692   1.58683  -0.34893
C    -1.87342   2.01903  -1.56749
H    -1.33063   1.57378  -2.38975
C    -2.85214   2.97048  -1.79198
H    -3.06997   3.28770  -2.79923
C    -3.53398   3.50071  -0.70768
H    -4.30207   4.24693  -0.84710
C    -3.19939   3.05365   0.55932
H    -3.69324   3.43782   1.43788
C    -2.20510   2.09840   0.69074
H    -1.89492   1.74951   1.66748
N    -1.58795  -1.18638   0.68773
C    -2.70715  -1.33897  -0.02375
H    -2.69806  -0.94811  -1.03234
C    -3.82877  -1.98392   0.46335
H    -4.70445  -2.07514  -0.15941
C    -3.80178  -2.50478   1.74744
H    -4.66121  -3.01209   2.15891
C    -2.63712  -2.36155   2.48232
H    -2.55682  -2.75369   3.48357
C    -1.55881  -1.70217   1.91776
H    -0.64696  -1.56386   2.48081
O     0.17694   0.57387   1.53684
