62

Re    0.00000   0.00000   0.00000
O     1.40075  -0.75476   0.46178
O    -1.70490   0.51353  -0.65351
N    -0.47956  -1.41121  -1.55597
N    -1.60707  -1.12951  -2.21283
P    -1.25422  -1.13168   1.85079
Cl    0.03449   1.78339   1.41714
C    -2.27599  -2.48982   1.21945
C    -1.61509  -3.49539   0.51417
H    -0.53477  -3.46584   0.45732
C    -2.33461  -4.50230  -0.09830
H    -1.82097  -5.27421  -0.65172
C    -3.71926  -4.51526  -0.00878
H    -4.28326  -5.29783  -0.49352
C    -4.37882  -3.52656   0.70211
H    -5.45633  -3.54124   0.77636
C    -3.66294  -2.50908   1.31232
H    -4.17673  -1.73140   1.86079
C    -0.14201  -1.90591   3.05479
C    -0.40542  -3.14838   3.62307
H    -1.29312  -3.69759   3.34005
C     0.47528  -3.67830   4.54928
H     0.27278  -4.64397   4.98908
C     1.61333  -2.97508   4.90986
H     2.29881  -3.39603   5.63042
C     1.87516  -1.73672   4.34466
H     2.76421  -1.19190   4.62314
C     1.00172  -1.19893   3.41739
H     1.20137  -0.23966   2.95764
C    -2.37799  -0.11297   2.84571
C    -2.54924  -0.34957   4.20586
H    -1.99301  -1.13813   4.69255
C    -3.42682   0.43502   4.93260
H    -3.55686   0.25394   5.98938
C    -4.13017   1.45435   4.31177
H    -4.80905   2.06755   4.88566
C    -3.95473   1.69546   2.95843
H    -4.49371   2.49864   2.47818
C    -3.07997   0.91637   2.22471
H    -2.91578   1.11305   1.17491
C     0.09426  -2.46240  -2.09028
H     1.02339  -2.83209  -1.70443
C    -0.69367  -2.91935  -3.16791
C    -0.59657  -3.97196  -4.08375
H     0.23810  -4.65389  -4.04148
C    -1.58400  -4.09838  -5.02759
H    -1.53857  -4.89756  -5.75162
C    -2.65935  -3.19954  -5.08034
H    -3.40914  -3.33051  -5.84601
C    -2.78299  -2.15728  -4.19268
H    -3.61417  -1.47423  -4.25998
C    -1.79089  -2.01770  -3.22160
C    -2.33490   0.09258  -1.78185
C    -2.21786   1.14216  -2.89938
H    -2.78782   2.02406  -2.61975
H    -2.59002   0.74726  -3.84003
H    -1.17022   1.42315  -3.00645
C    -3.80113  -0.27089  -1.49328
H    -3.84836  -1.10022  -0.79002
H    -4.32432  -0.54168  -2.40397
H    -4.28959   0.59324  -1.04980
O     0.71863   0.86504  -1.20738
