39

Zn    0.00000   0.00000   0.00000
O     0.99658   2.38807  -0.10073
O     2.36569   0.02132  -0.14834
O     1.23344  -2.27925   0.27622
O    -1.19540  -1.76449   1.22142
C    -0.79610   0.94094   1.54261
C    -1.49797   0.24996   2.52294
C    -2.07960   0.91564   3.59631
C    -1.95966   2.28762   3.70772
C    -1.27002   2.99661   2.73984
C    -0.70476   2.32689   1.66437
C    -0.01394   3.11536   0.57304
C     2.17269   2.24524   0.65813
C     3.07216   1.23591  -0.04264
C     3.17100  -1.10618  -0.40148
C     2.25191  -2.28940  -0.69725
C     0.24651  -3.27220   0.09422
C    -0.75357  -3.09807   1.23324
C    -1.63005  -1.25569   2.46256
H    -2.62508   0.35527   4.34377
H    -2.40546   2.80513   4.54436
H    -1.17839   4.07180   2.81452
H     0.40277   4.05052   0.97375
H    -0.74218   3.36778  -0.20552
H     2.69178   3.21195   0.74109
H     1.93508   1.88044   1.66690
H     3.98901   1.09673   0.54626
H     3.33560   1.60082  -1.04521
H     3.82818  -0.92959  -1.26374
H     3.78949  -1.31821   0.48403
H     2.82310  -3.22749  -0.64832
H     1.82314  -2.19101  -1.70233
H    -0.25458  -3.14842  -0.87389
H     0.69618  -4.27398   0.13745
H    -0.25012  -3.31928   2.18498
H    -1.59679  -3.79199   1.10510
H    -2.67879  -1.54465   2.63451
H    -1.02593  -1.69087   3.27512
O    -0.33236  -0.26642  -1.59407
