36

Pd    0.00000   0.00000   0.00000
Cl   -0.25365   0.81774  -2.12067
S    -1.39772  -1.62631  -0.46811
O    -2.70572  -1.10229  -0.11683
N     1.10076   1.54124   0.48310
C     0.49214   2.59360   1.04440
C    -0.91339   2.57034   1.24851
H    -1.48927   1.68307   0.93679
C    -1.53605   3.63869   1.82447
H    -2.60358   3.62111   1.98179
C    -0.80289   4.77668   2.22320
H    -1.32552   5.60507   2.67663
C     0.54520   4.83202   2.03846
H     1.11402   5.69933   2.33893
C     1.23802   3.74733   1.44480
C     2.61501   3.74752   1.23268
H     3.20430   4.60455   1.52648
C     3.23521   2.64770   0.64462
C     4.62967   2.58206   0.39928
H     5.23928   3.42715   0.68261
C     5.18208   1.47996  -0.17908
H     6.24451   1.43560  -0.36413
C     4.37577   0.38088  -0.54442
H     4.84008  -0.47958  -1.00157
C     3.03043   0.39963  -0.32541
H     2.39241  -0.45047  -0.60576
C     2.42089   1.53130   0.27360
C    -1.49279  -2.24430  -2.17623
H    -2.33954  -2.91600  -2.25657
H    -0.55867  -2.74599  -2.40543
H    -1.62409  -1.38510  -2.82653
C    -1.21495  -3.23389   0.36321
H    -1.17517  -3.04502   1.43136
H    -0.28543  -3.68339   0.03074
H    -2.07121  -3.85083   0.11645
O     0.26591  -0.65645   1.49026
