29

Re    0.00000   0.00000   0.00000
S    -1.41388   0.17037   2.12184
N    -0.65749  -2.06569   0.25858
O    -2.44686   0.75485  -1.72564
O     1.11540   2.85541   0.34502
O     1.83158  -0.56656  -2.42347
C    -1.52739   0.48609  -1.09575
C     0.68757   1.81497   0.14221
C     1.13512  -0.33370  -1.54163
C    -0.95658  -2.48794   1.51519
C    -1.24947  -1.55495   2.54060
C    -1.49115  -1.97232   3.82417
H    -1.72411  -1.25045   4.59169
C    -1.44385  -3.33144   4.15359
H    -1.61809  -3.63146   5.17536
C    -1.20407  -4.26446   3.18435
H    -1.19076  -5.31822   3.41874
C    -0.96732  -3.87007   1.85237
C    -0.72473  -4.80410   0.82571
H    -0.72096  -5.85805   1.06094
C    -0.49717  -4.35079  -0.44445
H    -0.31656  -5.02777  -1.26371
C    -0.45839  -2.97122  -0.67593
H    -0.24246  -2.60207  -1.67068
C    -0.35463   0.96024   3.36615
H     0.63650   0.51283   3.30897
H    -0.31266   2.01234   3.09777
H    -0.79439   0.84387   4.35162
O     1.17054  -0.53325   1.03343
