43

Fe    0.00000   0.00000   0.00000
Cl   -1.43374   0.66508   1.50783
N    -1.18375   0.62947  -1.27219
C    -2.03017  -0.08957  -2.00941
H    -1.93903  -1.16153  -1.92035
C    -2.98258   0.46841  -2.83225
H    -3.64618  -0.16621  -3.39730
C    -3.07917   1.85605  -2.90654
H    -3.82520   2.32587  -3.52799
C    -2.19541   2.61295  -2.16658
H    -2.23472   3.68933  -2.20347
C    -1.25308   1.97737  -1.35881
C    -0.23403   2.65214  -0.58382
C    -0.08724   4.03515  -0.47689
H    -0.79610   4.69290  -0.95281
C     0.95804   4.54916   0.26357
H     1.08213   5.61580   0.37155
C     1.83988   3.66349   0.87226
H     2.66859   4.01872   1.46279
C     1.63056   2.30612   0.72782
H     2.27180   1.57942   1.20510
N     0.62054   1.80124   0.02489
N     1.18312  -0.62895  -1.27304
C     2.02919   0.09034  -2.01035
H     1.93759   1.16229  -1.92148
C     2.98221  -0.46740  -2.83264
H     3.64569   0.16737  -3.39765
C     3.07991  -1.85502  -2.90598
H     3.82630  -2.32464  -3.52713
C     2.19636  -2.61218  -2.16603
H     2.23618  -3.68854  -2.20264
C     1.25325  -1.97683  -1.35900
C     0.23430  -2.65178  -0.58399
C     0.08818  -4.03480  -0.47655
H     0.79733  -4.69236  -0.95229
C    -0.95696  -4.54907   0.26390
H    -1.08055  -5.61572   0.37224
C    -1.83944  -3.66363   0.87200
H    -2.66789  -4.01907   1.46277
C    -1.63082  -2.30620   0.72703
H    -2.27216  -1.57963   1.20440
N    -0.62083  -1.80107   0.02420
O     1.08225  -0.50260   1.13957
