15

C     1.26020  -0.28954  -1.34981
C     2.99802  -0.58438  -3.19228
H     2.98606  -1.62535  -3.52864
H     3.98853  -0.32862  -2.80535
C     2.63398   0.32456  -4.37031
H     2.45468   1.35155  -4.01459
H     3.47581   0.34508  -5.08055
C     1.00651   0.58937  -6.04240
H     0.12571   0.08233  -6.42832
H     1.75733   0.67856  -6.83640
H     0.73123   1.59323  -5.69915
N     2.07078  -0.44709  -2.16243
O     1.48293  -0.19889  -4.97926
Au    0.00000   0.00000   0.00000
O    -1.10345   0.27549   1.19541
