58

Pd    0.00000   0.00000   0.00000
Br    0.61734  -0.26011  -2.31072
P    -0.74297   0.49135   2.05963
P    -2.04319   0.60222  -0.69940
C    -0.37270  -0.30747   3.63529
C     0.86918  -0.05166   4.21659
H     1.54728   0.64639   3.74485
C     1.23419  -0.70067   5.37651
H     2.19893  -0.50102   5.81886
C     0.38176  -1.62299   5.97784
C    -0.84692  -1.88195   5.38322
H    -1.51565  -2.60320   5.83139
C    -1.22243  -1.24196   4.21681
H    -2.17495  -1.47557   3.76171
C    -0.22872   2.21892   2.30842
C    -0.57674   2.91588   3.46215
H    -1.12892   2.41292   4.24511
C    -0.20250   4.23847   3.60601
H    -0.47159   4.77893   4.50161
C     0.52063   4.86991   2.60517
H     0.81241   5.90274   2.72322
C     0.87823   4.17812   1.45955
H     1.45070   4.66735   0.68586
C     0.50609   2.85376   1.30915
H     0.80958   2.30312   0.40486
C    -2.59131   0.65345   1.99053
H    -3.01705  -0.35633   1.96731
H    -2.96156   1.17071   2.88101
C    -2.95762   1.39470   0.71054
H    -2.63517   2.43891   0.78467
H    -4.03532   1.37368   0.52158
C    -2.47942   1.56461  -2.16634
C    -2.58326   0.90591  -3.38979
H    -2.45874  -0.16720  -3.43327
C    -2.82593   1.62832  -4.54221
H    -2.90432   1.11512  -5.48848
C    -2.95388   3.00683  -4.48471
H    -3.13953   3.57014  -5.38689
C    -2.82609   3.66654  -3.27319
H    -2.90830   4.74274  -3.23086
C    -2.57902   2.95192  -2.11555
H    -2.45572   3.47533  -1.17704
C    -2.94481  -0.96521  -0.88474
C    -2.28318  -2.15614  -0.59286
H    -1.22227  -2.14633  -0.29829
C    -2.95400  -3.36232  -0.69342
H    -2.43858  -4.28475  -0.47199
C    -4.28234  -3.38290  -1.08558
H    -4.80443  -4.32433  -1.16862
C    -4.94296  -2.19960  -1.38030
H    -5.97685  -2.22070  -1.69210
C    -4.27940  -0.99150  -1.28087
H    -4.78516  -0.06566  -1.52201
C     0.79365  -2.31575   7.23841
H     1.79101  -2.73736   7.12931
H     0.10011  -3.11297   7.49292
H     0.82261  -1.60518   8.06446
O     1.41691  -0.54435   0.64696
