41

Ti    0.00000   0.00000   0.00000
Cl    1.36573   0.54304  -1.58423
Cl    0.95279  -1.92623   0.42485
Cl   -1.65616   1.30187  -0.57520
S    -3.01165  -2.23574  -0.05178
S    -2.19495  -1.12158   1.44058
C    -1.85212  -1.94998  -1.46874
C    -2.57062  -1.28174  -2.62713
C    -1.53712  -0.91263  -3.69120
C    -0.77957  -2.15478  -4.15257
C    -0.10889  -2.84965  -2.97073
C    -1.14191  -3.21815  -1.90407
C    -1.45693  -2.39718   2.56973
C    -2.56195  -3.18228   3.25547
C    -1.94318  -4.18594   4.22694
C    -1.07315  -3.46574   5.25271
C     0.01867  -2.66030   4.55488
C    -0.59495  -1.65649   3.57978
H    -1.08875  -1.23110  -1.06942
H    -3.08592  -0.38500  -2.27629
H    -3.31271  -1.96947  -3.03890
H    -0.83295  -0.18678  -3.26469
H    -2.03591  -0.44089  -4.53848
H    -0.02584  -1.87398  -4.88912
H    -1.47632  -2.84646  -4.63198
H     0.63774  -2.17872  -2.52651
H     0.40550  -3.75043  -3.30758
H    -1.87212  -3.92218  -2.30921
H    -0.64520  -3.68434  -1.05037
H    -0.84165  -3.04948   1.94477
H    -3.17010  -3.69863   2.50980
H    -3.20821  -2.49102   3.80039
H    -1.33319  -4.89979   3.66956
H    -2.73582  -4.74128   4.73039
H    -0.62081  -4.19173   5.93016
H    -1.69529  -2.79411   5.84810
H     0.67654  -3.33521   4.00357
H     0.62226  -2.12854   5.29159
H    -1.21444  -0.93954   4.12532
H     0.19775  -1.10392   3.06300
O     0.61572   0.89549   1.24157
