56

W     0.00000   0.00000   0.00000
O    -1.87732   2.41791   0.56736
O    -1.80550  -0.62663  -2.45787
O   -13.80767  -4.17157   4.41090
N     1.26866  -1.93243  -0.15699
N     1.29529   0.23505   1.86188
C    -1.10746   1.60061   0.31249
C    -1.06630  -0.34694  -1.61975
C    -1.57909  -0.78158   0.73435
C    -2.87082  -1.17694   1.05423
C    -3.58104  -0.57441   2.11690
C    -4.85558  -0.97343   2.42873
C    -5.47832  -1.99670   1.69969
C    -4.78576  -2.60144   0.64037
C    -3.51255  -2.20375   0.32452
C    -6.77662  -2.41998   2.02352
C    -7.89470  -2.79770   2.29374
C    -9.18950  -3.24671   2.60453
C    -9.93268  -2.62646   3.61742
C   -11.19620  -3.07816   3.91843
C   -11.75082  -4.15648   3.22093
C   -11.00876  -4.77243   2.20967
C    -9.74400  -4.32555   1.90299
C   -13.09361  -4.63012   3.55295
C     0.42051  -3.12285  -0.28075
C     2.18569  -1.92977  -1.30047
C     2.03496  -2.01310   1.09905
C     2.45589  -0.62653   1.59097
C     1.76917   1.60724   2.06853
C     0.61592  -0.18502   3.09071
H    -3.10053   0.21818   2.67209
H    -5.39344  -0.50327   3.23943
H    -5.27082  -3.38418   0.07506
H    -2.98030  -2.66132  -0.49665
H    -9.50107  -1.79404   4.15345
H   -11.78527  -2.61339   4.69516
H   -11.43635  -5.60511   1.66883
H    -9.16581  -4.79844   1.12262
H   -13.42995  -5.48625   2.93198
H    -0.30824  -3.15279   0.53000
H    -0.12279  -3.08360  -1.22448
H     1.02379  -4.04096  -0.26137
H     2.76673  -2.86190  -1.33963
H     1.61281  -1.83044  -2.22335
H     2.87007  -1.08505  -1.24209
H     1.40938  -2.49554   1.85706
H     2.93335  -2.63565   0.96672
H     3.05526  -0.13653   0.81636
H     3.07903  -0.73586   2.49431
H     2.47984   1.65773   2.90430
H     2.25638   1.96966   1.16327
H     0.92096   2.25708   2.28620
H    -0.20488   0.50135   3.29652
H     0.19261  -1.18306   2.98713
H     1.30709  -0.17379   3.94567
O     1.22064   0.79997  -0.76980
