65

Zn    0.00000   0.00000   0.00000
O     1.06448  -0.64683  -1.44097
O    -1.58696  -0.49016   2.13631
H    -2.22762   0.22968   2.20981
N    -1.65071  -0.64080  -0.91567
N    -2.74173  -1.91631  -2.36780
N     0.71301  -1.46053   1.22293
N     0.97429  -3.53402   1.96483
C     0.89893  -1.90250  -1.66358
C     2.03203  -2.73917  -1.81378
H     2.99932  -2.26551  -1.73641
C     1.92228  -4.09223  -1.99722
H     2.81331  -4.69892  -2.08047
C     0.66757  -4.69537  -2.05526
H     0.57910  -5.76508  -2.17900
C    -0.46019  -3.91267  -1.95758
H    -1.42830  -4.39023  -1.96010
C    -0.38354  -2.52770  -1.78258
C    -1.57289  -1.71582  -1.68674
C    -2.90006  -0.10787  -1.08164
C    -3.48159   1.02064  -0.51727
H    -2.91503   1.65476   0.14710
C    -4.78098   1.30939  -0.88156
H    -5.26754   2.17978  -0.46781
C    -5.48103   0.51009  -1.78607
H    -6.49346   0.77775  -2.04912
C    -4.90769  -0.60649  -2.36449
H    -5.45436  -1.20287  -3.07880
C    -3.60658  -0.91119  -1.99565
C    -2.17080  -1.63222   1.72159
C    -3.54927  -1.74046   1.57843
H    -4.16944  -0.88134   1.79300
C    -4.12027  -2.91802   1.13546
H    -5.19093  -2.98086   1.01493
C    -3.31728  -4.00514   0.83546
H    -3.75827  -4.92467   0.48144
C    -1.94593  -3.91210   0.98307
H    -1.32852  -4.74749   0.69754
C    -1.34810  -2.73834   1.43518
C     0.09794  -2.58339   1.53671
C     2.23157  -2.97763   1.89828
C     3.49521  -3.46221   2.20540
H     3.64900  -4.46032   2.58596
C     4.55855  -2.60591   2.00301
H     5.55828  -2.94753   2.22595
C     4.37926  -1.30789   1.51597
H     5.24656  -0.68148   1.37283
C     3.12725  -0.81377   1.22138
H     2.96989   0.18496   0.84520
C     2.04846  -1.66637   1.42050
C    -3.03787  -2.85957  -3.41631
H    -2.09849  -3.28351  -3.77707
H    -3.50391  -2.30636  -4.23921
C    -3.98682  -3.96102  -2.94826
H    -3.54787  -4.53303  -2.13463
H    -4.20177  -4.63477  -3.77342
H    -4.92017  -3.53328  -2.59141
C     0.71413  -4.86258   2.45855
H    -0.34340  -4.93666   2.72085
H     1.30414  -5.00256   3.37067
C     1.09859  -5.92720   1.43288
H     0.57994  -5.76393   0.49101
H     0.84658  -6.91407   1.81193
H     2.16556  -5.89075   1.23027
O    -0.07274   1.56128   0.52880
