48

Ta    0.00000   0.00000   0.00000
Cl   -0.30189   1.64201   1.52860
C    -1.40968   1.13494  -1.39354
H    -1.14291   2.18861  -1.44719
H    -2.42174   1.06453  -0.99333
H    -1.41068   0.72956  -2.40291
C    -1.11549  -1.41583   1.40170
H    -1.04214  -2.45432   1.08658
H    -2.16863  -1.13270   1.41206
H    -0.73706  -1.33814   2.41912
C     2.20378   0.46020   0.18857
C     2.74800   1.52408  -0.52689
C     4.00051   2.03313  -0.19180
H     4.40442   2.85940  -0.75925
C     4.71626   1.48325   0.85562
H     5.68503   1.88259   1.11732
C     4.18882   0.42260   1.56869
H     4.74119  -0.01842   2.38616
C     2.93647  -0.08980   1.23774
C     1.99485   2.12307  -1.64961
C     1.64942   1.34969  -2.75712
H     1.94708   0.31006  -2.79505
C     0.98047   1.91946  -3.82575
H     0.73179   1.31086  -4.68358
C     0.62680   3.26262  -3.81334
C     0.97643   4.03055  -2.70783
H     0.71219   5.07848  -2.68506
C     1.65960   3.47444  -1.64331
H     1.92773   4.08362  -0.79202
C    -0.13026   3.87150  -4.95381
H    -1.19363   3.91113  -4.71482
H    -0.00899   3.28293  -5.85982
H     0.20682   4.88817  -5.14447
C     2.38559  -1.22303   2.01129
C     2.20598  -1.12546   3.38892
H     2.44552  -0.19892   3.89074
C     1.71065  -2.19639   4.10700
H     1.56466  -2.10421   5.17410
C     1.39915  -3.39758   3.47788
C     1.59952  -3.49899   2.10776
H     1.37940  -4.42936   1.60369
C     2.07971  -2.42612   1.37717
H     2.26164  -2.53081   0.31566
C     0.85112  -4.54523   4.26987
H     1.44780  -4.71528   5.16433
H     0.83820  -5.45662   3.67769
H    -0.16882  -4.32757   4.58739
O     0.15918  -1.20287  -1.11815
