64

Pd    0.00000   0.00000   0.00000
Br    1.27510   0.84658   1.90530
O     2.52270   0.30991  -5.58762
O     2.10161  -4.03266  -4.43838
N    -0.91785  -1.33199   1.22556
N     2.24682   0.71680  -1.71126
N     2.18717  -1.86418  -5.07103
N     0.99741   2.45225  -1.46207
C    -1.74339  -1.05621   2.23009
H    -2.07071  -0.02717   2.32556
C    -2.16901  -2.02032   3.12743
H    -2.84193  -1.74977   3.92537
C    -1.71117  -3.31996   2.98405
H    -2.01987  -4.09386   3.67019
C    -0.84389  -3.60265   1.94022
H    -0.45700  -4.59758   1.78778
C    -0.47584  -2.58085   1.08410
H     0.19239  -2.77788   0.24483
C     1.10560   1.15215  -1.14926
C     2.78806  -0.61347  -1.53317
H     2.03276  -1.20639  -0.97845
H     3.69450  -0.54668  -0.91949
C     3.10773  -1.28829  -2.86347
H     3.55722  -2.26378  -2.67141
H     3.82738  -0.68195  -3.41740
C     1.84973  -1.46291  -3.71397
H     1.19978  -2.23164  -3.29301
H     1.30348  -0.51968  -3.78348
C     2.48489  -0.84666  -5.96041
C     2.75056  -1.24993  -7.35069
C     2.99019  -0.29011  -8.31149
H     2.98012   0.74954  -8.02061
C     3.23638  -0.66206  -9.63639
H     3.41954   0.10341 -10.37532
C     3.24516  -1.98450  -9.99689
H     3.43556  -2.27251 -11.02069
C     3.00712  -2.99530  -9.04228
C     3.01017  -4.36798  -9.36709
H     3.20005  -4.65830 -10.39034
C     2.77771  -5.31718  -8.40595
H     2.78190  -6.36502  -8.66568
C     2.53280  -4.94068  -7.08196
H     2.34808  -5.68256  -6.31979
C     2.51906  -3.60821  -6.72689
C     2.25375  -3.22433  -5.33027
C     2.75492  -2.61581  -7.69996
C     2.84888   1.74235  -2.39259
H     3.76539   1.62466  -2.93028
C     2.05988   2.83017  -2.23870
H     2.17048   3.82764  -2.61032
C    -0.04828   3.31674  -0.96710
H     0.24252   4.34943  -1.16923
H    -0.09291   3.18246   0.12114
C    -1.41546   2.99784  -1.59269
H    -1.40990   1.96517  -1.95306
H    -1.58703   3.64568  -2.45326
C    -2.55364   3.14647  -0.58233
H    -2.43794   4.08390  -0.03273
H    -3.50212   3.19055  -1.12036
C    -2.58746   1.96890   0.38711
H    -2.82984   1.05155  -0.15719
H    -3.34717   2.12375   1.15094
H    -1.61294   1.85641   0.88855
O    -0.81267  -0.62755  -1.29161
