65

C     1.85628   0.00092  -0.87653
C     2.10212  -2.40897  -1.02262
C     1.40231  -3.15507  -1.96270
C     0.96320  -2.75902  -3.33879
H     1.74202  -2.25017  -3.90799
H     0.11391  -2.07488  -3.26209
C     0.55416  -4.09278  -3.98154
H    -0.26708  -3.97480  -4.68600
H     1.40534  -4.51492  -4.52013
C     0.18692  -5.01146  -2.80663
H    -0.88111  -4.94522  -2.58225
H     0.42427  -6.05765  -3.00098
C     0.96809  -4.44308  -1.65879
C     1.23078  -5.02332  -0.43098
H     0.88213  -6.01904  -0.20017
C     1.95109  -4.28687   0.49265
C     2.38350  -4.68299   1.87440
H     3.24971  -5.34866   1.81354
H     1.59962  -5.20343   2.42359
C     2.76436  -3.34228   2.52062
H     3.55301  -3.44687   3.26392
H     1.88838  -2.91235   3.00720
C     3.17765  -2.43917   1.35004
H     2.96563  -1.38803   1.53984
H     4.24827  -2.53860   1.14214
C     2.38898  -2.99891   0.20254
C     3.72503  -0.76524  -2.03921
H     3.67396  -1.18823  -3.04654
H     4.59699  -1.19025  -1.53140
C     0.62635  -0.00043   1.73795
C    -1.81151  -0.00139   0.48134
Ir    0.00000   0.00000   0.00000
N     2.51244  -1.07696  -1.29105
O     0.97579  -0.00036   2.84118
O    -2.94800  -0.00249   0.61637
C     2.10200   2.41096  -1.02242
C     1.40231   3.15707  -1.96259
C     0.96294   2.76082  -3.33853
H     1.74151   2.25156  -3.90771
H     0.11344   2.07696  -3.26155
C     0.55430   4.09457  -3.98156
H    -0.26706   3.97671  -4.68590
H     1.40556   4.51626  -4.52036
C     0.18752   5.01370  -2.80686
H    -0.88054   4.94801  -2.58241
H     0.42533   6.05974  -3.00149
C     0.96851   4.44527  -1.65892
C     1.23143   5.02567  -0.43123
H     0.88316   6.02157  -0.20062
C     1.95144   4.28912   0.49256
C     2.38396   4.68534   1.87424
H     3.25042   5.35066   1.81327
H     1.60026   5.20620   2.42332
C     2.76428   3.34461   2.52075
H     3.55298   3.44905   3.26401
H     1.88813   2.91514   3.00742
C     3.17721   2.44106   1.35036
H     2.96456   1.39008   1.54034
H     4.24790   2.53985   1.14256
C     2.38893   3.00096   0.20268
C     3.72494   0.76746  -2.03908
H     3.67379   1.19062  -3.04634
H     4.59685   1.19251  -1.53123
N     2.51231   1.07895  -1.29085
O    -0.57653   0.00058  -1.54600
