67

Pd    0.00000   0.00000   0.00000
As    0.71873  -1.66195  -1.46249
As   -1.86992   0.76282  -1.18878
Cl    1.84843  -0.73764   1.07771
C    -3.43600  -0.13789  -1.92687
C    -3.62641  -1.49521  -2.10878
H    -2.84358  -2.19367  -1.82900
C    -4.82125  -1.95815  -2.63697
H    -4.96920  -3.01726  -2.78758
C    -5.82652  -1.06218  -2.96176
H    -6.75412  -1.42520  -3.37932
C    -5.66674   0.29283  -2.72640
H    -6.47577   0.97263  -2.94870
C    -4.47652   0.76941  -2.19088
C    -4.21038   2.15187  -1.78298
C    -2.96737   2.36256  -1.15753
C    -2.64587   3.59877  -0.62453
H    -1.71425   3.72340  -0.08509
C    -3.54463   4.64895  -0.74353
H    -3.30285   5.61401  -0.32349
C    -4.75441   4.45891  -1.39068
H    -5.44793   5.28162  -1.48530
C    -5.09444   3.21730  -1.90060
H    -6.05087   3.08142  -2.38352
C    -0.77203   1.15600  -2.77780
C    -0.18685   2.42180  -2.80248
H    -0.43325   3.12760  -2.01512
C     0.69331   2.78611  -3.80401
H     1.13601   3.77101  -3.80142
C     1.00043   1.88382  -4.80843
H     1.67744   2.15959  -5.60280
C     0.44401   0.61987  -4.78540
H     0.68830  -0.09514  -5.55909
C    -0.42047   0.22813  -3.76376
C    -0.92940  -1.16631  -3.82703
C    -0.41346  -2.16787  -2.99317
C    -0.82574  -3.48377  -3.18346
H    -0.41894  -4.26036  -2.54194
C    -1.73108  -3.80912  -4.17946
H    -2.03549  -4.83641  -4.31663
C    -2.24474  -2.81540  -4.99500
H    -2.95769  -3.06068  -5.76773
C    -1.83302  -1.50523  -4.82780
H    -2.21644  -0.72712  -5.47301
C     1.38990  -3.36920  -0.82633
C     2.69543  -3.80276  -1.01710
H     3.38563  -3.19182  -1.58915
C     3.11529  -4.99711  -0.45406
H     4.13263  -5.33044  -0.59891
C     2.24066  -5.75690   0.30422
H     2.57485  -6.68422   0.74539
C     0.94249  -5.31956   0.51563
H     0.26715  -5.90259   1.12483
C     0.52153  -4.12653  -0.04239
H    -0.48586  -3.75172   0.13871
C     2.17701  -0.81235  -2.41116
C     2.76636  -1.42231  -3.51472
H     2.42576  -2.40933  -3.81956
C     3.76160  -0.76935  -4.21896
H     4.22199  -1.24610  -5.07258
C     4.16511   0.49856  -3.83098
H     4.94287   1.00709  -4.38155
C     3.57077   1.11643  -2.74361
H     3.88125   2.10736  -2.44701
C     2.57631   0.46435  -2.03542
H     2.10407   0.95368  -1.17465
O    -0.14446   1.36829   0.91072
