32

Au    0.00000   0.00000   0.00000
C    -0.03403   1.66422   1.10986
C    -0.07589   0.09950   4.10643
N    -0.14174   0.55999   5.34789
C     1.78105  -1.29834   4.63119
H     2.52925  -2.02416   4.34918
C     0.72706   0.10785   6.23511
H     0.62477   0.51315   7.23311
C     1.70884  -0.82229   5.93139
H     2.39484  -1.16448   6.69007
C     0.87300  -0.82923   3.69612
H     0.89099  -1.17494   2.67306
C    -1.07674   0.67403   3.13043
H    -1.40038  -0.09313   2.42286
H    -1.93487   1.06272   3.68426
N    -0.48145   1.75040   2.37735
C    -0.25045   3.00999   2.88275
N     0.46875   2.87015   0.78238
C     0.35513   3.73818   1.84585
C     0.71554   5.06702   2.01473
H     1.17803   5.63191   1.22111
C    -0.13320   4.90460   4.28084
H    -0.30632   5.38922   5.22921
C    -0.49863   3.58206   4.12157
H    -0.93595   3.00992   4.92333
C     0.45769   5.63346   3.24801
H     0.72393   6.66497   3.42015
C     1.04007   3.21991  -0.48670
H     2.07916   3.52953  -0.36044
H     0.47852   4.03850  -0.94078
H     1.00080   2.34881  -1.13926
O     0.06745  -1.40048  -0.86983
