33

Pt    0.00000   0.00000   0.00000
Cl    0.64009  -1.04429   1.91301
N    -2.00627   0.75967  -1.92182
N    -1.25934  -1.54624  -0.37294
C    -1.00449   2.40765  -4.88929
H    -0.06716   2.76590  -5.28295
C    -1.07621   1.77817  -3.65582
C    -3.48116   1.46803  -3.85755
H    -4.42741   1.11721  -3.47662
C    -2.30224   1.31280  -3.14506
C    -2.18533   2.55841  -5.59179
H    -2.16953   3.04500  -6.55455
C    -2.51382  -1.32365  -0.78925
C    -3.40081  -2.36162  -1.01878
H    -4.40494  -2.14798  -1.35087
N    -0.11319   1.47254  -2.72043
C    -0.67691   0.85520  -1.66918
C    -0.85461  -2.80231  -0.17953
H     0.16134  -2.92705   0.16871
C    -1.68800  -3.88764  -0.37909
H    -1.32030  -4.88478  -0.20001
C    -2.98892  -3.66886  -0.80371
H    -3.66796  -4.49125  -0.96554
C    -3.39894   2.09732  -5.08600
H    -4.29707   2.23601  -5.66758
C    -2.91072   0.11944  -0.99700
H    -3.92835   0.18966  -1.38177
H    -2.85226   0.64127  -0.02923
C     1.28450   1.76984  -2.87732
H     1.80065   1.49446  -1.95755
H     1.41914   2.83712  -3.05135
H     1.69463   1.21178  -3.72048
O     0.99888   1.26428   0.35544
