30

W     0.00000   0.00000   0.00000
O     1.65486  -0.06811  -0.17534
N    -2.28487   0.06694   0.72660
C    -3.66189   0.88331   2.71631
C    -0.08460   1.43795   1.56361
C     0.92301   2.39546   1.77229
C     0.81545   3.38034   2.74006
C    -0.31626   3.44113   3.53393
C    -1.33601   2.52014   3.35912
C    -1.22724   1.53691   2.38585
C    -2.29084   0.46891   2.17521
C    -2.99692  -1.21817   0.57196
C    -3.00506   1.07122  -0.08316
Cl    0.00055  -1.76407   1.56357
Cl   -0.81344  -1.32897  -1.65485
H     1.81197   2.35207   1.14842
H     1.61021   4.09864   2.87366
H    -0.40984   4.20516   4.29106
H    -2.20661   2.58130   3.99283
H    -1.96332  -0.42604   2.72676
H    -3.62648   0.87984   3.80172
H    -4.43736   0.18193   2.42229
H    -3.93918   1.87979   2.38293
H    -3.01962  -1.49787  -0.48126
H    -4.02986  -1.14633   0.92496
H    -2.48204  -1.99976   1.13282
H    -2.60487   2.06850   0.11102
H    -4.07562   1.06529   0.14415
H    -2.88049   0.84356  -1.14505
O    -0.23486   1.27585  -1.01958
