42

Ru    0.00000   0.00000   0.00000
O    -3.93395  -0.23542   1.04784
O     1.76296   3.60528  -0.72199
O     1.24177  -0.71629   2.44762
N    -0.96147  -1.87913  -0.12818
N    -2.93981  -2.82158  -0.04004
N    -1.76587   0.50541   0.70426
N     0.35439   1.93445   0.04720
N     3.30310   1.37529  -1.95201
N     1.86350   0.02283  -0.99919
N     0.70402  -0.36677   1.47573
C    -0.84250  -3.14541  -0.58912
H     0.09710  -3.54095  -0.92049
C    -2.06993  -3.74381  -0.53595
H    -2.38267  -4.73053  -0.80913
C    -2.24381  -1.69559   0.19724
C    -2.76583  -0.38304   0.70453
C    -1.84872   1.87306   0.95918
C    -2.96140   2.50580   1.50390
H    -3.82711   1.91740   1.76067
C    -2.94744   3.87550   1.70098
H    -3.81445   4.35764   2.12683
C    -1.83617   4.62575   1.35332
H    -1.83489   5.69436   1.50692
C    -0.72066   4.01817   0.80412
H     0.14302   4.59718   0.52057
C    -0.70950   2.64153   0.60443
C     1.41773   2.43576  -0.59095
C     2.20938   1.30114  -1.17294
C     3.65605   0.10330  -2.28448
H     4.50144  -0.10761  -2.90650
C     2.75134  -0.72976  -1.68860
H     2.68876  -1.79965  -1.71161
C    -4.34801  -3.02698   0.16790
H    -4.77336  -2.10997   0.57486
H    -4.50506  -3.84873   0.86768
H    -4.83268  -3.26758  -0.77913
C     3.98256   2.56979  -2.37624
H     3.44864   3.43083  -1.97462
H     3.99918   2.62105  -3.46556
H     5.00790   2.56718  -2.00373
O    -0.62769   0.23742  -1.50736
