50

Pt    0.00000   0.00000   0.00000
S    -1.09063  -1.90712  -1.00340
F     1.88943  -2.05837  -1.54629
F     4.28559  -3.11611  -0.96983
F     5.60618  -2.38837   1.30941
F     4.45699  -0.56575   3.00244
F     2.04554   0.48291   2.43258
F     0.39776  -2.79171   1.70190
F    -0.56934  -3.56176   4.08756
F    -2.14550  -1.87721   5.55159
F    -2.72169   0.61597   4.57089
F    -1.74472   1.38923   2.18339
N     0.89405   2.90669   0.70112
N    -1.96454   0.46137  -0.59652
C     0.57203   1.80227   0.61216
C     1.33014   4.24532   0.69311
C     1.71790   4.62391   2.12231
C     0.16376   5.09322   0.18103
C     2.52690   4.31382  -0.25849
C     2.49472  -1.67440  -0.42056
C     3.73941  -2.23166  -0.13431
C     4.41317  -1.86463   1.02434
C     3.82846  -0.94124   1.88325
C     2.58466  -0.40919   1.56733
C     1.88023  -0.74842   0.41817
C    -0.38037  -1.93604   2.38136
C    -0.86884  -2.34935   3.61854
C    -1.66888  -1.49305   4.36725
C    -1.96165  -0.22918   3.86805
C    -1.45415   0.14901   2.63021
C    -0.66609  -0.68514   1.85006
C    -2.29986  -0.69839  -1.19372
C    -3.50279  -0.83426  -1.89354
C    -4.33875   0.25521  -1.96821
C    -3.96901   1.45414  -1.35401
C    -2.76801   1.51685  -0.68181
H     2.08783   5.64521   2.13941
H     0.85844   4.55099   2.78454
H     2.49713   3.96263   2.49377
H     0.45925   6.13818   0.15566
H    -0.11484   4.78424  -0.82397
H    -0.69892   4.99078   0.83567
H     2.86115   5.34352  -0.34801
H     3.34890   3.71007   0.11849
H     2.25071   3.94490  -1.24395
H    -3.73532  -1.77591  -2.36319
H    -5.27268   0.18804  -2.50486
H    -4.60454   2.32222  -1.40433
H    -2.43276   2.42034  -0.19106
O     0.47658   0.62214  -1.45201
