59

Au    0.00000   0.00000   0.00000
C    -1.55963   1.26758  -0.43519
N    -1.44230   2.58272  -0.56930
N    -2.74095   0.71022  -0.69161
H    -3.47755   1.23624  -1.14520
C    -0.12670   3.19327  -0.37774
H     0.53578   2.36705  -0.09502
C     0.39961   3.78552  -1.68398
H     0.36707   3.03445  -2.47030
H     1.43178   4.09495  -1.54713
H    -0.17543   4.65177  -2.00330
C    -0.11786   4.20744   0.76450
H    -0.67620   5.10998   0.52615
H     0.90877   4.49411   0.97406
H    -0.53628   3.76058   1.66311
C    -2.52232   3.51577  -0.92074
H    -2.05246   4.50094  -0.93172
C    -3.09361   3.29131  -2.32885
H    -2.33357   2.87677  -2.98641
H    -3.41619   4.24414  -2.74257
H    -3.95894   2.63109  -2.34429
C    -3.61042   3.56566   0.15546
H    -4.15743   2.63157   0.24663
H    -4.31939   4.35291  -0.09034
H    -3.16714   3.79160   1.12226
C    -3.52338  -1.32107  -1.71865
C    -2.98932  -0.67833  -0.62018
C    -2.73693  -1.37533   0.57483
H    -2.36471  -0.83038   1.42789
C    -2.99049  -2.71447   0.65154
H    -2.79704  -3.25308   1.56676
C    -3.50845  -3.41681  -0.45606
C    -3.76348  -4.80258  -0.40086
H    -3.54992  -5.32954   0.51771
C    -4.26104  -5.46709  -1.48627
H    -4.45113  -6.52901  -1.43709
C    -4.52003  -4.77453  -2.67867
H    -4.90080  -5.31413  -3.53335
C    -4.28820  -3.43022  -2.76455
H    -4.47763  -2.90215  -3.68755
C    -3.78785  -2.71262  -1.65739
C    -3.81661  -0.53879  -2.94042
C    -5.11995  -0.30128  -3.30616
H    -5.92221  -0.72789  -2.72032
C    -5.42363   0.49592  -4.41856
H    -6.45802   0.66115  -4.68184
C    -4.42130   1.06662  -5.15151
H    -4.64860   1.69456  -6.00081
C    -3.06942   0.84562  -4.81460
C    -2.01630   1.43449  -5.54653
H    -2.26327   2.06845  -6.38636
C    -0.71281   1.20966  -5.20248
H     0.08680   1.67034  -5.76398
C    -0.40261   0.36365  -4.12616
H     0.63010   0.17341  -3.87525
C    -1.39908  -0.22690  -3.40060
H    -1.15134  -0.89188  -2.58622
C    -2.75529   0.01714  -3.70443
O     1.24148  -1.04952   0.28238
