51

Ni    0.00000   0.00000   0.00000
N    -1.14078  -0.07683  -1.56022
N     1.34302   0.48639  -1.17948
N     1.47899   0.14567   1.45137
N    -0.21132   2.12474   0.86442
N     0.99026  -2.07356  -0.19465
O     3.63176   0.60114  -1.38542
C    -2.42492  -0.33223  -1.68309
H    -2.99064  -0.46704  -0.77052
C    -3.05661  -0.44093  -2.93036
H    -4.11454  -0.64976  -2.96447
C    -2.32515  -0.28778  -4.07743
H    -2.78394  -0.37281  -5.05238
C    -0.94549  -0.01415  -3.98296
C    -0.09098   0.15443  -5.08854
H    -0.50065   0.07278  -6.08420
C     1.24199   0.41669  -4.89107
H     1.89218   0.54142  -5.74508
C     1.79300   0.53222  -3.61376
H     2.84275   0.73889  -3.48753
C     0.98845   0.37769  -2.49554
C    -0.39407   0.09172  -2.68171
C     2.59987   0.59993  -0.73041
C     2.62421   0.79176   0.79309
H     3.57900   0.43191   1.19694
H     2.57435   1.87277   0.95610
C     1.01459   0.94916   2.58056
H     1.84614   1.22730   3.24486
H     0.29081   0.35511   3.15032
C     0.28456   2.17751   2.09828
C     0.10240   3.28017   2.92368
H     0.52176   3.28798   3.91832
C    -0.62803   4.35549   2.44934
H    -0.78875   5.22501   3.06939
C    -1.14750   4.29392   1.16566
H    -1.72299   5.10973   0.75793
C    -0.90778   3.15741   0.41165
H    -1.28606   3.06729  -0.59849
C     1.83477  -1.21243   1.86951
H     0.99827  -1.61766   2.44934
H     2.74300  -1.21247   2.49028
C     2.01643  -2.08637   0.65626
C     3.15876  -2.83842   0.43302
H     3.97157  -2.82117   1.14306
C     3.23970  -3.59984  -0.72206
H     4.12373  -4.18324  -0.93211
C     2.16925  -3.59282  -1.59974
H     2.18983  -4.17172  -2.50944
C     1.06346  -2.81768  -1.28756
H     0.20133  -2.79065  -1.94203
O    -1.15462  -0.51344   1.06100
