31

Zn    0.00000   0.00000   0.00000
Cl    1.31644   1.47045   0.97745
O    -1.69492   1.34196   1.08229
H    -1.36412   1.70712   1.91662
N     0.93646  -0.55416  -1.89885
N    -1.58010   0.27339  -1.33203
N    -2.43122  -0.64173  -3.16634
N    -3.40508  -0.14915  -2.39939
H    -4.36608  -0.25430  -2.68455
C     2.19387  -0.88406  -2.13792
H     2.89413  -0.68601  -1.33857
C     2.60090  -1.44691  -3.33846
H     3.63705  -1.70179  -3.49296
C     1.65105  -1.67776  -4.32274
H     1.93246  -2.12213  -5.26568
C     0.33423  -1.33010  -4.07683
H    -0.44848  -1.48590  -4.80113
C     0.01902  -0.76423  -2.84502
C    -1.33294  -0.38159  -2.48956
C    -2.89441   0.40100  -1.27108
C    -3.66509   0.99966  -0.20551
C    -3.02948   1.44907   0.96907
C    -3.79609   2.00422   1.99080
H    -3.29980   2.34368   2.88908
C    -5.16573   2.11706   1.86705
H    -5.74266   2.54739   2.67082
C    -5.79824   1.67765   0.71280
H    -6.86854   1.76496   0.61348
C    -5.05406   1.12564  -0.30758
H    -5.55784   0.79030  -1.20125
O    -0.54233  -1.43641   0.60423
