31

Pt    0.00000   0.00000   0.00000
Br    4.42722  -4.81203  -0.02777
N     0.52727   0.05332  -1.94499
N    -0.08392  -0.53144   1.94292
C     0.04508   0.88109  -2.86687
H    -0.70351   1.58681  -2.52711
C     0.46257   0.85836  -4.18612
H     0.04092   1.55071  -4.89636
C     1.42505  -0.06581  -4.56689
H     1.77401  -0.11061  -5.58726
C     1.93192  -0.93119  -3.61410
H     2.68100  -1.66081  -3.87762
C     1.47600  -0.86452  -2.30180
C     1.93625  -1.72144  -1.21095
C     2.87854  -2.74582  -1.21588
H     3.41025  -3.03629  -2.10938
C     3.13113  -3.40653  -0.02009
C     2.50095  -3.10706   1.18134
H     2.75200  -3.66605   2.07013
C     1.55843  -2.08291   1.18823
C     1.29705  -1.41349  -0.00864
C     0.75355  -1.55568   2.28838
C     0.79646  -2.01750   3.59963
H     1.46299  -2.82601   3.85439
C    -0.01085  -1.43962   4.56291
H     0.01684  -1.79165   5.58282
C    -0.85398  -0.40135   4.19348
H    -1.49923   0.07705   4.91202
C    -0.85668   0.01826   2.87472
H    -1.49910   0.82551   2.54371
O    -1.11558   1.21570   0.00751
