39

Ru    0.00000   0.00000   0.00000
C    -3.28836  -1.38453   2.28740
H    -3.30843  -2.41320   1.93829
H    -4.26910  -0.92989   2.16547
H    -3.03414  -1.36866   3.34557
C    -2.25715  -0.61241   1.51996
C    -2.08575   0.77637   1.68257
C    -2.91098   1.67981   2.54579
H    -2.83921   1.37749   3.58896
H    -3.95872   1.65984   2.24859
H    -2.52934   2.69324   2.44194
C     2.03546   0.67022  -0.98987
C     1.97521  -0.74325  -1.21344
H     2.82570  -1.35409  -0.93040
C     0.87528  -1.32360  -1.82252
H     0.85588  -2.38757  -2.02519
C    -0.25056  -0.52562  -2.18373
C    -0.13783   0.88008  -2.08889
H    -0.91256   1.51308  -2.50871
C     1.01139   1.46954  -1.52117
H     1.08803   2.54857  -1.48465
C     3.26584   1.28610  -0.36492
H     3.85015   0.48181   0.09563
C     2.89204   2.28404   0.73200
H     2.37980   3.15175   0.32475
H     3.78810   2.62262   1.24588
H     2.23638   1.80533   1.45831
C     4.11971   1.94808  -1.45200
H     4.39226   1.22761  -2.22117
H     5.03088   2.34667  -1.01339
H     3.57790   2.76609  -1.92153
C    -1.43482  -1.16830  -2.84416
H    -1.16028  -1.52333  -3.83890
H    -2.25717  -0.46245  -2.94134
H    -1.77528  -2.02318  -2.26137
N    -1.09587   1.24496   0.91546
O    -1.53839  -1.20543   0.66369
O    -0.81781   2.44202   0.78107
O     0.67275  -0.35397   1.46445
