38

I    -2.18219   0.81362  -1.09466
Pd    0.00000   0.00000   0.00000
N     2.05388   0.30849  -1.64587
N     1.75804   4.13438   1.24325
C     3.25773  -0.24540  -1.04579
H     3.18622  -1.33228  -1.02740
H     3.35891   0.11217  -0.02076
H     4.15677   0.04124  -1.61288
C     1.91656  -0.07921  -3.04835
H     1.62889  -1.12958  -3.12487
H     2.87103   0.06495  -3.58276
C     0.85359   0.87501  -3.58009
H    -0.13905   0.48577  -3.35334
H     0.92927   1.01527  -4.65596
C     1.10351   2.17474  -2.79953
H     0.17237   2.56231  -2.38562
H     1.54411   2.94855  -3.42606
C     2.08239   1.77708  -1.66858
H     3.09905   2.13222  -1.91675
C     1.66002   2.35271  -0.34029
C     0.70117   1.68002   0.45901
C     0.29777   2.31518   1.64786
H    -0.44469   1.84750   2.28937
C     0.83045   3.51788   2.00780
H     0.53823   4.02221   2.91653
C     2.15643   3.55166   0.08793
H     2.89168   4.08578  -0.49384
C     2.32111   5.41985   1.65234
H     1.86164   5.66636   2.61502
C     1.95361   6.50802   0.64569
H     2.27685   7.47442   1.02172
H     0.87703   6.53845   0.49503
H     2.43280   6.33836  -0.31476
C     3.83100   5.30666   1.85176
H     4.34649   5.14428   0.90901
H     4.06511   4.48308   2.52249
H     4.20813   6.22606   2.29048
O     0.74365  -0.95547   1.12096
