31

C     1.46516   2.21761  -1.58699
H     1.06111   1.67664  -2.43105
C     1.76882   2.39493   0.66261
H     1.60995   1.96412   1.64118
C     2.42904   3.60303   0.47241
H     2.81510   4.17560   1.30381
C     2.14593   3.42190  -1.76609
C     2.37444   3.96782  -3.15231
N     1.28442   1.71428  -0.37258
N     2.61673   4.11168  -0.73207
N     2.92344   5.19510  -3.14752
H     3.12710   5.65267  -4.01984
H     3.15147   5.63435  -2.27149
O     2.08748   3.33970  -4.14495
Zn    0.00000   0.00000   0.00000
Cl   -0.04325   0.00006   2.22309
C     1.47305  -2.21378  -1.58634
H     1.07464  -1.66979  -2.43110
C     1.76575  -2.39699   0.66421
H     1.60421  -1.96761   1.64297
C     2.42250  -3.60705   0.47447
H     2.80255  -4.18285   1.30640
C     2.15069  -3.41994  -1.76493
C     2.38390  -3.96366  -3.15121
N     1.28810  -1.71259  -0.37169
N     2.61389  -4.11380  -0.73024
N     2.92073  -5.19628  -3.14636
H     3.12763  -5.65266  -4.01855
H     3.14047  -5.63937  -2.27011
O     2.11061  -3.32942  -4.14388
O    -1.06066  -0.00276  -1.26392
