52

Zr    0.00000   0.00000   0.00000
O     2.58322  -2.59393  -1.62198
O     2.55771  -0.61728  -0.22701
B     2.05504  -1.38181  -1.31002
C     0.78366  -0.77358  -1.93447
C    -0.07521  -1.70121  -2.79912
C     0.57966  -2.01110  -4.15265
C    -0.28216  -2.93423  -5.01001
C     0.36082  -3.23222  -6.36252
C    -0.50203  -4.15911  -7.21038
C     3.70768  -3.12842  -0.95525
C     3.78569  -1.02565   0.36307
C     3.88300  -2.54849   0.44675
C     0.21532   2.43198  -0.67272
C    -0.66415   2.47667   0.42816
C     0.03839   2.05509   1.56990
C     1.36403   1.75352   1.18281
C     1.47633   1.99943  -0.20509
C     0.62721  -1.57834   1.90716
C     0.13803  -2.36317   0.83751
C    -1.23414  -2.06742   0.67690
C    -1.58966  -1.10233   1.64331
C    -0.44144  -0.80682   2.40638
H     0.95632   0.17850  -2.46789
H    -1.05277  -1.24282  -2.98739
H    -0.23394  -2.64837  -2.26864
H     1.55103  -2.47508  -3.97213
H     0.74858  -1.07455  -4.69009
H    -1.25808  -2.47004  -5.17001
H    -0.44668  -3.87291  -4.47592
H     1.33904  -3.69169  -6.20240
H     0.52053  -2.29455  -6.89976
H    -0.02881  -4.35560  -8.16995
H    -0.65465  -5.10874  -6.70193
H    -1.47592  -3.71032  -7.39333
H     4.59571  -2.91458  -1.56464
H     3.57106  -4.21452  -0.91358
H     3.83582  -0.57452   1.35955
H     4.61688  -0.63236  -0.23815
H     4.84753  -2.84470   0.85780
H     3.09113  -2.92589   1.09533
H    -0.01243   2.77513  -1.67544
H    -1.68190   2.84386   0.40725
H    -0.32931   2.11567   2.58701
H     2.18397   1.52964   1.85499
H     2.39465   1.98871  -0.78003
H     1.60215  -1.65672   2.37150
H     0.66759  -3.15621   0.32439
H    -1.91698  -2.55886  -0.00588
H    -2.59159  -0.73210   1.82701
H    -0.41940  -0.22364   3.31876
O    -1.44589   0.21374  -0.76566
