52

Ag    0.00000   0.00000   0.00000
N    -2.56330   1.56457  -0.82086
N    -1.55420   2.67695   0.74079
C    -3.30548   2.71035  -0.63303
C    -4.44060   3.21072  -1.25354
C    -4.90704   4.43643  -0.81919
C    -4.26354   5.14619   0.19384
C    -3.12145   4.66377   0.80341
C    -2.64533   3.43296   0.37481
C    -1.49375   1.54091   0.01654
C    -2.88090   0.52965  -1.72461
C    -1.91464   0.05320  -2.60509
C    -2.23009  -0.97704  -3.47420
C    -3.50210  -1.52490  -3.47463
C    -4.46463  -1.04182  -2.60397
C    -4.15823  -0.01788  -1.72558
C    -0.61048   3.09887   1.75873
C     0.16726   1.95699   2.37123
C    -0.43827   1.21843   3.39590
C     0.30106   0.24138   4.06310
C     1.61321   0.01595   3.67904
C     2.21520   0.70957   2.64222
C     1.48033   1.68708   1.96092
C    -1.86333   1.49408   3.79351
C    -0.28092  -0.55899   5.19167
C     3.62501   0.38354   2.25971
C     2.14584   2.44817   0.84460
H    -4.93067   2.66947  -2.04744
H    -5.78835   4.85824  -1.27723
H    -4.66301   6.10035   0.50134
H    -2.62022   5.22805   1.57402
H    -0.93206   0.51015  -2.62900
H    -1.47859  -1.34753  -4.15398
H    -3.74400  -2.32783  -4.15407
H    -5.45654  -1.46829  -2.60053
H    -4.89852   0.34529  -1.02769
H    -1.17902   3.60676   2.54339
H     0.07104   3.83560   1.32271
H     2.18644  -0.73755   4.20032
H    -1.91346   2.34501   4.47578
H    -2.29344   0.63658   4.30020
H    -2.48550   1.70980   2.92845
H    -1.08625  -1.20120   4.83521
H    -0.67987   0.09184   5.96862
H     0.48282  -1.19352   5.63383
H     3.62435  -0.14525   1.30626
H     4.07915  -0.26629   3.00309
H     4.23231   1.28104   2.16019
H     2.74260   3.26943   1.24633
H     1.42964   2.85412   0.13331
H     2.81175   1.78627   0.29678
O     1.20273  -1.11213  -0.19777
