59

Pt    0.00000   0.00000   0.00000
Br   -1.55702  -0.93721  -1.57767
P    -1.65854   0.52328   1.49020
P     1.44221   0.79266   1.59191
C    -1.87640  -0.85585   2.61546
C    -1.48960  -0.62818   3.87449
C    -0.98496   0.75888   4.17229
C    -1.00189   1.58241   2.86069
C    -1.65340  -1.63884   4.96467
C    -1.75426   1.37556   5.33378
C     0.52239   1.72352   2.90290
C     0.58477   0.91953   4.22488
C     1.37927  -0.33758   3.98988
C     1.87087  -0.49964   2.75743
C     1.13194   1.69451   5.41723
C     1.68432  -1.28218   5.10940
C    -3.39748   1.13382   1.09758
C    -3.25125   2.14915  -0.03350
C    -4.24595  -0.05914   0.65870
C    -4.05195   1.77349   2.32085
C     3.04471   1.72968   1.26702
C     2.76277   2.66541   0.09361
C     4.13870   0.72203   0.91542
C     3.48807   2.51943   2.49757
H    -2.25193  -1.80674   2.26791
H    -1.52229   2.53841   2.92294
H    -1.39043  -2.63182   4.60793
H    -1.04987  -1.40136   5.83390
H    -2.69706  -1.66667   5.28054
H    -1.53332   2.43466   5.43312
H    -2.82317   1.26946   5.16070
H    -1.51274   0.88330   6.27221
H     0.85600   2.75876   2.97612
H     2.44856  -1.35886   2.45122
H     0.70085   2.69055   5.46822
H     0.92479   1.18209   6.35300
H     2.21062   1.79905   5.31939
H     1.55247  -2.31255   4.78678
H     2.72502  -1.16289   5.41299
H     1.06190  -1.09890   5.97895
H    -4.21903   2.57438  -0.29220
H    -2.58430   2.96069   0.26161
H    -2.84154   1.66978  -0.92126
H    -5.20852   0.29403   0.29273
H    -3.76659  -0.61388  -0.14341
H    -4.42435  -0.73176   1.49594
H    -5.10307   1.95650   2.10299
H    -3.99688   1.10706   3.18020
H    -3.59999   2.72823   2.57933
H     3.63982   3.26821  -0.13392
H     2.50469   2.09078  -0.79501
H     1.93322   3.33503   0.32631
H     5.02864   1.25301   0.58183
H     4.40337   0.12415   1.78584
H     3.82538   0.05825   0.11408
H     4.49704   2.89378   2.33140
H     2.84845   3.37765   2.69002
H     3.50618   1.88136   3.37984
O     1.23943  -0.52638  -0.95354
