49

Pt    0.00000   0.00000   0.00000
Cl   -0.13397  -1.18270   1.89361
N     0.09745   0.86486  -1.81374
C    -0.82055   1.70192  -2.28810
H    -1.45331   2.17434  -1.54724
C    -0.96738   1.93521  -3.64208
H    -1.70434   2.63802  -3.99449
C    -0.20032   1.19507  -4.52543
H    -0.35999   1.25601  -5.58955
C     0.76742   0.31900  -4.04247
C     0.95931   0.24679  -2.65665
C     1.97549  -0.55100  -1.95583
C     3.30603  -0.73804  -2.35151
C     4.09797  -1.60338  -1.60246
H     5.12427  -1.75253  -1.89575
C     3.57679  -2.21899  -0.47720
H     4.16288  -2.91244   0.10321
C     2.30512  -1.86884  -0.06528
H     1.87454  -2.23507   0.85826
N     1.53932  -1.04171  -0.77082
C     1.45321  -0.58200  -5.03036
H     1.85721  -1.47179  -4.52669
H     2.28205  -0.05751  -5.52125
O     0.50242  -0.97632  -6.00376
C     1.02872  -1.81062  -7.00381
H     1.54501  -2.67226  -6.55878
H     0.16060  -2.15705  -7.56778
C     2.00013  -1.09779  -7.95162
H     1.63894  -0.07620  -8.14207
H     2.04155  -1.63408  -8.91145
O     3.28201  -1.06553  -7.36279
C     4.20882  -0.27304  -8.06442
H     4.40904  -0.70129  -9.05803
H     3.81860   0.74726  -8.19165
C     5.50035  -0.21811  -7.25861
H     6.29532   0.24497  -7.86231
H     5.80626  -1.24148  -6.99716
O     5.26571   0.53370  -6.09274
C     6.35981   0.55259  -5.20220
H     6.68612  -0.47266  -4.97225
H     7.20484   1.09016  -5.65785
C     5.94242   1.25634  -3.90633
H     5.33220   2.13220  -4.16754
H     6.83426   1.58080  -3.36679
O     5.25566   0.42599  -3.00600
C     3.96735   0.04210  -3.45273
H     3.38055   0.93805  -3.69796
H     4.06082  -0.56900  -4.35934
O    -1.16505   1.00676   0.59295
