43

Pd    0.00000   0.00000   0.00000
Br    2.38990  -0.34172  -0.12782
N    -3.08887   0.07307   0.11526
C    -1.87696   0.63549   0.12214
N    -2.06745   1.96485   0.24634
N     0.50465  -0.14698   2.91489
C     0.17718   0.64849   1.88447
N    -0.04137   1.87491   2.40667
C    -0.44258   3.09497   1.73406
H    -1.22380   3.56344   2.34545
H     0.41438   3.77820   1.68877
C     0.17846   1.84080   3.76488
H     0.07748   2.71013   4.38130
C     0.74977  -1.57707   2.80300
H     0.62918  -1.82856   1.72913
C    -0.96769   2.89608   0.30508
H    -0.15433   2.50538  -0.34009
H    -1.28880   3.86550  -0.08401
C    -4.05040   1.04585   0.22407
H    -5.09755   0.82726   0.22643
C    -3.41060   2.23580   0.31192
H    -3.79731   3.23036   0.40061
C     0.52015   0.57200   4.07912
H     0.76797   0.14233   5.02673
C    -3.30955  -1.35644  -0.01778
H    -2.30342  -1.81125  -0.01251
C    -0.29596  -2.34397   3.60892
H    -0.18561  -2.15480   4.67466
H    -1.30008  -2.05444   3.30269
H    -0.17840  -3.40953   3.43543
C     2.17309  -1.90811   3.23493
H     2.88187  -1.36214   2.61670
H     2.33567  -1.65237   4.27962
H     2.35526  -2.97037   3.10345
C    -3.98397  -1.66254  -1.35049
H    -4.95841  -1.18310  -1.41351
H    -3.35796  -1.31301  -2.16808
H    -4.11441  -2.73526  -1.45554
C    -4.11187  -1.87881   1.17053
H    -3.64864  -1.57964   2.10947
H    -5.13117  -1.49922   1.14919
H    -4.15050  -2.96361   1.13534
O    -0.28174  -0.51455  -1.54219
