33

Pd    0.00000   0.00000   0.00000
Br   -1.27862   1.81799  -0.94195
N     1.58603   2.32927   0.91446
N     2.22593  -1.76095  -0.38343
C     1.58192   1.22140   0.13999
N     2.76925   1.20473  -0.49906
N     1.35795  -2.34404   1.50605
C     1.23341  -1.47724   0.48203
C     0.52999   2.65427   1.77317
H    -0.17692   1.83000   1.91104
C     2.42851  -3.17898   1.27313
H     2.71331  -3.96036   1.94491
C     2.76184   3.01719   0.74365
H     2.98461   3.92762   1.25787
C     0.48784  -2.33668   2.59718
H    -0.28800  -1.57988   2.49911
C     3.29933   0.21622  -1.41801
H     3.43892   0.68826  -2.39777
H     4.28363  -0.09317  -1.04271
C     2.41974  -1.02615  -1.60976
H     2.89777  -1.67602  -2.34689
H     1.42360  -0.72479  -1.99298
C     3.50410   2.31305  -0.13741
H     4.47937   2.50396  -0.53528
C     2.97308  -2.81112   0.09126
H     3.80780  -3.21459  -0.44451
C     0.36189   3.82662   2.36004
H     1.02298   4.66164   2.20564
H    -0.47926   3.99189   3.00636
C     0.55721  -3.14536   3.64052
H     1.30893  -3.90802   3.74809
H    -0.16411  -3.06790   4.43191
O    -1.24554  -1.07780  -0.09732
