56

C    -1.57907  -1.13348   0.02702
C    -1.00109   1.65688   0.17321
C    -0.07560   0.12659  -1.94497
C     3.44400  -0.65564  -6.16198
H     3.64758  -0.83279  -7.21012
C     3.94370   0.46107  -5.50955
H     4.54643   1.18399  -6.03663
C     3.64427   0.61600  -4.16624
H     4.00765   1.46793  -3.61067
C     2.86262  -0.33911  -3.53707
H     2.60824  -0.23597  -2.49488
C     2.40573  -1.41638  -4.28491
C     1.53229  -2.50430  -3.71186
H     0.52934  -2.42186  -4.15386
H     1.95507  -3.47655  -3.99804
C     0.82291  -3.34313  -1.58531
C     0.18551  -4.46204  -2.09028
H     0.15617  -4.64625  -3.15186
C    -0.43076  -5.35268  -1.22214
H    -0.92563  -6.22285  -1.62414
C    -0.42566  -5.12657   0.13901
H    -0.91761  -5.81524   0.80774
C     0.20326  -4.00274   0.65448
H     0.17554  -3.81624   1.71817
C     0.83643  -3.11511  -0.19521
C     2.08922  -1.89670   1.55544
H     2.27987  -2.91230   1.92289
H     3.04984  -1.37315   1.47748
C     1.24179  -1.13137   2.51630
C     1.21563  -1.04482   3.88368
H     1.79357  -1.54915   4.62678
C    -0.17612   0.37898   5.38947
C     0.28848  -0.15882   6.58908
H     0.99260  -0.97471   6.59783
C    -0.16362   0.35656   7.78573
H     0.17824  -0.03988   8.72942
C    -1.07696   1.40407   7.78064
C    -1.54638   1.94246   6.58688
H    -2.25547   2.75522   6.61652
C    -1.09605   1.42958   5.39019
H    -1.43850   1.82314   4.44680
N     2.69921  -1.57116  -5.57022
N     1.45506  -1.90978   0.23366
H     2.13493  -1.64068  -0.48024
N     0.31132  -0.25848   2.04811
N    -0.26346   0.33669   3.02382
N     0.26049  -0.11319   4.15892
N    -1.54517   1.93811   9.03728
O    -2.47313  -1.85319   0.04608
O    -1.51337   2.66721   0.33253
O    -0.13141   0.21037  -3.08401
O     1.46215  -2.37859  -2.30966
O    -1.10445   1.44355  10.05250
O    -2.34666   2.84500   8.99600
Re    0.00000   0.00000   0.00000
O     1.47890   0.72960   0.05521
