21

Mo    0.00000   0.00000   0.00000
Cl   -0.26106   0.91168  -2.08070
Cl    1.07418  -1.83756  -0.60794
O    -2.45370  -0.76767  -0.78085
O    -1.66378   1.63996   0.42842
N     1.19539   1.02514   0.66396
C    -2.56652  -1.58957  -1.92401
C    -3.26417   0.38524  -0.83966
C    -3.01446   1.20605   0.41993
C    -1.37951   2.48507   1.53424
H    -2.24317  -1.05701  -2.82516
H    -1.92261  -2.45140  -1.75579
H    -3.60149  -1.92618  -2.05174
H    -3.01176   0.98345  -1.72951
H    -4.32486   0.09686  -0.88579
H    -3.67461   2.08554   0.42114
H    -3.21168   0.58870   1.31155
H    -0.32480   2.74915   1.44702
H    -1.54399   1.95341   2.47979
H    -2.01142   3.37926   1.48622
O    -0.69505  -0.61259   1.36533
