67

C     0.92782  -0.41063   1.69239
C     1.77340   0.51687   2.28085
C     2.43219   0.24152   3.46956
H     3.08475   0.98163   3.90575
C     2.23433  -0.98885   4.07451
H     2.74210  -1.21366   4.99954
C     1.39388  -1.93473   3.51075
H     1.23606  -2.89383   3.97877
C     0.74788  -1.63269   2.32156
C     2.51182   2.28805  -0.91360
C     2.03176   2.92080  -2.21538
H     1.80371   3.97504  -2.08331
H     1.14511   2.41931  -2.59750
H     2.81446   2.84004  -2.96903
C     3.62046   3.12528  -0.28468
H     4.48352   3.14506  -0.94924
H     3.93280   2.71069   0.67131
H     3.29273   4.15025  -0.12664
C     3.00598   0.86184  -1.19674
H     3.85061   0.87404  -1.88427
H     2.20031   0.27262  -1.66095
H     3.32446   0.36727  -0.27431
C     0.04390   3.42213   0.77811
C    -1.06740   2.73165   1.58217
H    -1.78810   3.46065   1.95022
H    -0.65340   2.19804   2.44273
H    -1.60538   2.01550   0.94241
C    -0.56895   4.12594  -0.42800
H    -0.96947   3.41107  -1.14390
H     0.16181   4.75122  -0.93406
H    -1.38637   4.76694  -0.09946
C     0.80049   4.41390   1.65539
H     0.10627   5.15733   2.04570
H     1.56765   4.93366   1.08585
H     1.27488   3.91264   2.49656
C    -0.07062  -3.42181  -0.80663
C     1.38373  -2.95241  -0.95476
H     1.90400  -2.97417   0.00507
H     1.40780  -1.92315  -1.34759
H     1.92658  -3.59020  -1.65073
C    -0.12925  -4.80939  -0.17800
H    -1.14813  -5.19051  -0.17337
H     0.24184  -4.79200   0.84480
H     0.48565  -5.49922  -0.75507
C    -0.73432  -3.41994  -2.17945
H    -0.15034  -4.03165  -2.86645
H    -0.78873  -2.41393  -2.58969
H    -1.73947  -3.82933  -2.13928
C    -2.58928  -2.24891   0.77247
C    -2.85649  -3.39215   1.74619
H    -3.89932  -3.36348   2.05988
H    -2.23023  -3.30897   2.63157
H    -2.66813  -4.35667   1.28140
C    -3.47480  -2.37435  -0.46259
H    -3.43816  -3.38156  -0.87038
H    -3.17615  -1.67172  -1.23802
H    -4.50881  -2.16028  -0.19449
C    -2.84570  -0.89695   1.45393
H    -3.86707  -0.83959   1.82785
H    -2.70303  -0.08011   0.73308
H    -2.16496  -0.75210   2.29964
O     1.94945   1.73830   1.65342
O    -0.10068  -2.55623   1.73596
P     1.10099   1.95105   0.27957
P    -0.77194  -2.09670   0.32471
Pd    0.00000   0.00000   0.00000
O    -0.78294   0.35259  -1.40897
