41

Ir    0.00000   0.00000   0.00000
O    -1.60782  -1.06706  -0.73962
O    -0.29356   0.99175  -1.74507
O    -1.57213   1.04980  -3.54567
O    -2.97993  -1.17112  -2.46685
C    -2.04573  -0.65729  -1.88946
C    -1.27193   0.55746  -2.47980
N     1.21492  -1.22694  -1.07429
C     2.11786  -0.66688  -1.88054
C     2.79251  -1.38510  -2.85167
C     2.52260  -2.73492  -3.00234
C     1.59124  -3.31602  -2.15573
C     0.96145  -2.52881  -1.21036
N    -1.33120   1.31536   0.79669
C    -2.49327   0.91551   1.31376
C    -3.52805   1.79015   1.58634
C    -3.35936   3.13828   1.31076
C    -2.14725   3.55287   0.78495
C    -1.16178   2.61322   0.54021
N     0.13467  -1.13891   1.73771
C    -0.75199  -2.13123   1.86957
C    -0.78499  -2.96636   2.97075
C     0.13572  -2.77607   3.98962
C     1.05351  -1.74775   3.85324
C     1.02110  -0.95573   2.71878
H     2.30212   0.38923  -1.74470
H     3.50688  -0.88333  -3.48402
H     3.01934  -3.31951  -3.76138
H     1.34233  -4.36242  -2.23176
H     0.21652  -2.95344  -0.55308
H    -2.60768  -0.14270   1.49927
H    -4.45253   1.41406   1.99439
H    -4.15457   3.84370   1.49695
H    -1.96367   4.58911   0.55167
H    -0.20863   2.90581   0.12350
H    -1.45929  -2.25578   1.06037
H    -1.52259  -3.75134   3.02348
H     0.13609  -3.41076   4.86245
H     1.79189  -1.55365   4.61443
H     1.72525  -0.14521   2.58244
O     1.28079   0.91313   0.49827
