33

Re    0.00000   0.00000   0.00000
C     2.44033   0.34921   3.63221
H     2.23621   0.75438   4.61124
C     3.70855  -0.08860   3.29202
H     4.51817  -0.03155   4.00279
C    -2.54674   2.66635   1.07331
H    -2.43647   2.20239   0.09108
H    -1.96023   3.58885   1.07484
C     1.42085   0.26946   2.69515
N     1.62214  -0.21537   1.46567
C     0.02173   0.72299   3.01977
H     0.04160   1.41846   3.87163
H    -0.57138  -0.15414   3.31597
C     2.84433  -0.63204   1.13974
H     2.97446  -1.00631   0.13270
C     3.91199  -0.58993   2.01626
H     4.88145  -0.93664   1.69827
N    -0.61720   1.32883   1.84640
O    -2.22613   0.65830  -2.04744
C    -0.98061  -1.48079   0.77232
O     1.35477  -1.70049  -2.19703
C    -1.42802   0.40632  -1.26425
O    -1.56979  -2.34562   1.24607
C     0.81598  -1.09451  -1.38664
C    -2.00306   1.71740   2.13655
H    -2.05585   2.21067   3.11909
H    -2.61547   0.81076   2.17717
C    -4.01322   2.99183   1.31879
H    -4.37899   3.67248   0.55522
H    -4.14645   3.46213   2.29107
H    -4.61471   2.08647   1.28783
H    -0.10768   2.19727   1.63402
O     0.83403   1.35204  -0.44596
