45

Re    0.00000   0.00000   0.00000
P    -1.40618   1.59812  -1.28091
O     0.38854   1.90203   2.41182
C     0.22837   1.20160   1.52230
N     0.38313   2.23690  -3.05213
C     1.59379   0.68512  -0.95916
O     2.52166   0.93467  -1.56227
O    -2.59376  -1.33051   1.07812
C    -1.63908  -0.82763   0.71643
O     1.71334  -2.31384   1.16195
C     1.09269  -1.43873   0.77977
O     3.00606   3.11412  -5.21280
C    -1.37081   3.29705  -0.64195
C    -0.90394   4.40165  -1.34032
H    -0.53276   4.29465  -2.34829
C    -0.90383   5.64562  -0.73116
H    -0.53817   6.50409  -1.27487
C    -1.36628   5.79211   0.56528
H    -1.35935   6.76469   1.03382
C    -1.83474   4.69003   1.26506
H    -2.19396   4.80085   2.27708
C    -1.83329   3.44665   0.66590
H    -2.19760   2.57658   1.20139
C    -0.83284   1.71875  -3.00308
C     0.99406   2.32011  -4.22950
C     0.40473   1.85969  -5.40723
H     0.95596   1.93198  -6.33166
C    -0.86553   1.31087  -5.34546
H    -1.34544   0.93166  -6.23514
C    -1.51031   1.24163  -4.12090
H    -2.49526   0.81150  -4.02333
C     2.34478   2.92409  -4.22807
H     2.69462   3.19771  -3.21656
C    -3.18464   1.25185  -1.46375
C    -3.59396  -0.05328  -1.73119
H    -2.86613  -0.84777  -1.82160
C    -4.93653  -0.33852  -1.89757
H    -5.24412  -1.35251  -2.10372
C    -5.87880   0.67178  -1.79714
H    -6.92755   0.44751  -1.92139
C    -5.47444   1.97134  -1.53877
H    -6.20650   2.76184  -1.46413
C    -4.13327   2.26643  -1.37370
H    -3.82552   3.28258  -1.17196
O    -0.13207  -0.94417  -1.34670
