49

Au    0.00000   0.00000   0.00000
P     0.41846  -1.91927   1.07913
Si    4.01541   0.18307   0.87806
O     2.85014  -0.99185   0.65146
C     5.40786  -0.55611   1.95502
H     5.97237  -1.32585   1.43608
H     6.11149   0.21097   2.26072
H     4.99885  -1.00417   2.85739
C     3.01733   1.49033   1.81552
H     2.18387   1.84525   1.21574
H     2.61193   1.09818   2.74410
H     3.63528   2.34786   2.05832
C     4.64946   0.82433  -0.79792
H     3.81425   1.13646  -1.42006
H     5.29375   1.68733  -0.66329
H     5.21368   0.08149  -1.35577
C     1.67155  -2.93291   0.27069
C     2.87060  -2.22118   0.11772
C     3.93668  -2.81125  -0.54087
H     4.86074  -2.26894  -0.66090
C     3.79291  -4.09386  -1.04551
H     4.62333  -4.55401  -1.55995
C     2.60267  -4.79034  -0.90544
H     2.50974  -5.78645  -1.31024
C     1.52993  -4.20881  -0.25099
H     0.59385  -4.73784  -0.14042
C    -0.97628  -3.07052   1.24212
C    -1.92840  -3.05982   0.22733
H    -1.81915  -2.35652  -0.58919
C    -2.99810  -3.93442   0.27100
H    -3.73421  -3.92699  -0.51895
C    -3.12638  -4.81451   1.33397
H    -3.96401  -5.49490   1.37201
C    -2.18570  -4.81964   2.35160
H    -2.29140  -5.50287   3.18155
C    -1.10963  -3.95134   2.30991
H    -0.37544  -3.95212   3.10378
C     1.02623  -1.73147   2.77674
C     0.48690  -0.69333   3.52884
H    -0.26435  -0.05369   3.08291
C     0.92013  -0.47853   4.82422
H     0.50168   0.32890   5.40661
C     1.89986  -1.29364   5.36856
H     2.24551  -1.12164   6.37703
C     2.44057  -2.32657   4.61963
H     3.20487  -2.96017   5.04606
C     2.00625  -2.55083   3.32550
H     2.43009  -3.35401   2.73755
O    -0.21633   1.44441  -0.76771
