66

Mo    0.00000   0.00000   0.00000
Cl    2.31780  -0.50295  -0.39164
O    -0.15726  -1.95365   0.36294
O     0.59201   0.07535   1.93905
N     0.15160   1.88511   0.15613
N    -0.15603   2.97445  -0.61357
N    -0.61817  -0.08839  -1.61819
N    -1.12053  -0.27333  -2.79781
C     0.04635   2.92904  -1.99408
C     1.10699   2.19146  -2.52489
C     1.30146   2.15013  -3.89230
C     0.47046   2.85826  -4.74557
C    -0.56605   3.61109  -4.21937
C    -0.78829   3.64177  -2.85684
C    -0.76607   4.06212   0.02451
C    -0.49231   5.37332  -0.36728
C    -1.06594   6.42814   0.31463
C    -1.90276   6.19619   1.39584
C    -2.17038   4.89591   1.79020
C    -1.61003   3.82945   1.11199
C    -0.38465  -4.12331   1.29341
C    -0.11107  -2.64580   1.42371
C     0.17159  -2.11169   2.68039
C     0.50356  -0.76461   2.87616
C     0.78028  -0.28679   4.27984
C    -2.08099   0.62587  -3.29294
C    -2.20300   0.85567  -4.66155
C    -3.14384   1.75605  -5.12277
C    -3.95586   2.44247  -4.23440
C    -3.81818   2.22875  -2.87246
C    -2.88643   1.32653  -2.39699
C    -0.77164  -1.45345  -3.48404
C    -1.69081  -2.11288  -4.29753
C    -1.32859  -3.28860  -4.92745
C    -0.06400  -3.82460  -4.74464
C     0.84165  -3.17844  -3.91868
C     0.49644  -1.99799  -3.28834
H     0.44251   2.24638   1.07567
H     1.78361   1.66351  -1.86599
H     2.11988   1.56995  -4.29108
H     0.63201   2.82757  -5.81211
H    -1.21768   4.16931  -4.87432
H    -1.61538   4.20784  -2.45758
H     0.17433   5.55346  -1.19681
H    -0.84933   7.44050   0.00753
H    -2.34408   7.02611   1.92626
H    -2.82742   4.70711   2.62578
H    -1.84766   2.81234   1.39871
H    -1.55620   0.33895  -5.35380
H    -3.23785   1.92825  -6.18481
H    -4.69003   3.14308  -4.60254
H    -4.44539   2.76159  -2.17356
H    -2.78095   1.14601  -1.33494
H    -2.68653  -1.71477  -4.42060
H    -2.04526  -3.79604  -5.55626
H     0.21042  -4.74491  -5.23770
H     1.82667  -3.59299  -3.76541
H     1.20113  -1.48844  -2.64504
H     0.16016  -2.76821   3.53552
H    -0.16699  -0.17175   4.80561
H     1.38724  -1.00700   4.82175
H     1.28438   0.67689   4.25243
H    -0.31733  -4.41260   0.24659
H    -1.39305  -4.33054   1.64978
H     0.31606  -4.70297   1.88812
O    -1.47735   0.03007   0.73419
