52

Mo    0.00000   0.00000   0.00000
Cl   -2.12060   1.02947  -0.61361
O    -1.21667  -0.94703   1.38363
O    -0.69139  -1.42010  -1.30189
N     0.83453   0.63070  -1.58903
N     1.63157   1.64780  -2.01692
N     0.45445   1.25664   1.10673
N     0.63373   2.24520   1.92404
C     1.32429   2.24783  -3.24936
C     2.30958   2.91502  -3.97805
C     2.01250   3.45054  -5.21593
C     0.73935   3.32757  -5.74987
C    -0.24339   2.67144  -5.02838
C     0.03986   2.13588  -3.78587
C     2.26508   2.42778  -0.98398
C    -2.78289  -2.36334   2.45465
C    -2.00444  -1.92051   1.23784
C    -2.21457  -2.61243   0.03975
C    -1.55557  -2.33040  -1.15766
C    -1.89996  -3.16025  -2.37160
C     1.70446   2.27340   2.81236
C     1.91307   3.35543   3.66944
C     2.99801   3.35680   4.52660
C     3.88631   2.29537   4.54799
C     3.67910   1.21805   3.70005
C     2.60214   1.20077   2.83844
C    -0.38428   3.28157   1.92696
H     0.62752   0.06714  -2.42318
H     3.31098   2.99732  -3.58484
H     2.78380   3.96125  -5.77314
H     0.51519   3.74533  -6.71932
H    -1.24262   2.58459  -5.42792
H    -0.74491   1.66378  -3.20818
H     1.54497   3.08696  -0.48491
H     3.05474   3.03334  -1.42081
H     2.69397   1.74096  -0.25010
H     1.23758   4.19523   3.67501
H     3.14827   4.19943   5.18570
H     4.72979   2.30548   5.22107
H     4.36080   0.38105   3.71104
H     2.43383   0.35519   2.18472
H    -0.85288   3.35808   2.90964
H     0.04276   4.24776   1.64915
H    -1.14018   2.99570   1.19217
H    -2.93157  -3.41861   0.04342
H    -2.43407  -1.81674   3.32758
H    -2.66025  -3.43163   2.61546
H    -3.84128  -2.15905   2.30312
H    -1.16481  -2.99382  -3.15591
H    -2.88078  -2.86261  -2.74015
H    -1.93579  -4.21636  -2.11809
O     1.10772  -1.16504   0.37166
