32

Pd    0.00000   0.00000   0.00000
N     1.73995   0.67066   0.57386
C     2.64832   1.29867  -0.17656
C     3.85199   1.74469   0.33574
C     4.12977   1.53904   1.68148
C     3.19256   0.88695   2.46067
C     1.99950   0.45322   1.88528
N    -0.22433  -0.37160   1.94411
C     0.93777  -0.23587   2.62318
C     1.08809  -0.73255   3.90911
C     0.02596  -1.42656   4.47673
C    -1.15722  -1.53883   3.78441
C    -1.30144  -0.95485   2.50899
O    -1.77512  -0.72210  -0.45760
C    -2.72618  -0.87561   0.40314
C    -2.58065  -0.98285   1.82414
C    -3.74855  -1.11571   2.60028
C    -4.99957  -1.19469   2.04695
C    -5.13870  -1.15842   0.65829
C    -4.03561  -1.00026  -0.13166
H     2.38415   1.42887  -1.22109
H     4.55687   2.24530  -0.30763
H     5.05736   1.88061   2.11390
H     3.38012   0.72177   3.50892
H     2.01708  -0.62403   4.44244
H     0.13342  -1.87855   5.45092
H    -1.97059  -2.10432   4.20627
H    -3.66393  -1.10941   3.67674
H    -5.86953  -1.27728   2.68009
H    -6.11865  -1.23698   0.21100
H    -4.11622  -0.94542  -1.20667
O     0.26592   0.24549  -1.60982
