57

Pd    0.00000   0.00000   0.00000
As   -1.71000   1.04717   1.18781
O    -3.58523  -2.61462  -0.81015
N    -1.74526  -1.46041  -0.32458
C     1.46184   1.39089   0.31512
H     1.19262   2.04110   1.16359
H     1.53448   1.99564  -0.59962
H     2.42719   0.91328   0.50467
C    -3.52467   0.82904   0.50798
C    -4.45611   1.84652   0.68188
H    -4.15504   2.75016   1.20079
C    -5.75216   1.72970   0.20896
H    -6.45459   2.53655   0.35879
C    -6.14252   0.57728  -0.45248
H    -7.15149   0.47617  -0.82268
C    -5.23235  -0.44380  -0.64259
H    -5.52258  -1.34472  -1.16135
C    -3.92122  -0.32968  -0.17812
C    -3.01715  -1.45168  -0.42863
C    -2.52965  -3.54705  -1.04022
H    -2.51838  -3.79937  -2.10476
H    -2.73377  -4.44868  -0.46088
C    -1.25437  -2.79788  -0.60126
H    -0.51298  -2.73306  -1.40808
C    -0.52842  -3.33608   0.64955
H     0.16142  -2.52590   0.95452
C    -1.48277  -3.62767   1.80541
H    -0.91670  -3.79071   2.71918
H    -2.07367  -4.52220   1.61610
H    -2.15986  -2.79086   1.97700
C     0.30135  -4.56273   0.28919
H     1.04916  -4.29835  -0.45364
H    -0.32909  -5.35500  -0.11125
H     0.81167  -4.94057   1.17149
C    -1.75659   2.87928   1.86844
C    -1.44464   3.88386   0.95521
H    -1.20171   3.60103  -0.06794
C    -1.43676   5.21018   1.34678
H    -1.19970   5.98617   0.63355
C    -1.72622   5.54063   2.66163
H    -1.71675   6.57481   2.97247
C    -2.01735   4.54587   3.58023
H    -2.23185   4.80514   4.60711
C    -2.03107   3.21753   3.18740
H    -2.25309   2.43683   3.90710
C    -1.77780  -0.00660   2.81701
C    -2.93138  -0.21795   3.56213
H    -3.86841   0.22507   3.23811
C    -2.88510  -0.99911   4.70454
H    -3.78473  -1.16673   5.27943
C    -1.68794  -1.56687   5.10958
H    -1.65669  -2.17519   6.00151
C    -0.53407  -1.36250   4.36948
H     0.39702  -1.81120   4.68370
C    -0.57995  -0.58824   3.22342
H     0.31657  -0.43370   2.61098
O     1.10906  -0.86353  -0.86418
