65

Re    0.00000   0.00000   0.00000
O     2.63267   1.03723  -1.24054
O    -1.53935   1.63270  -2.13411
C    -0.06153   1.58200   1.14145
O    -0.07490   2.54368   1.76464
P     1.22670  -1.27556   1.69808
P     0.05670  -2.00677  -1.40867
C    -0.01813  -3.58521   2.23977
H    -0.87223  -2.91391   2.37073
H     0.22395  -4.02918   3.21164
C    -0.36315  -4.68438   1.24016
H    -1.13149  -5.32099   1.67845
H     0.52898  -5.28346   1.04665
C    -0.88893  -4.13219  -0.08082
H    -1.24670  -4.95383  -0.71104
H    -1.72428  -3.44961   0.10249
C     1.66863   0.62456  -0.77701
O     1.14550  -2.88001   1.80200
O     0.17054  -3.49032  -0.79400
C    -0.99722   0.99951  -1.34759
C     3.00958  -1.13614   1.41233
C     3.78578  -2.19692   0.97082
H     3.34121  -3.17418   0.86304
C     5.12367  -1.99294   0.68156
H     5.72970  -2.81761   0.33530
C     5.68488  -0.73650   0.83169
H     6.72816  -0.58051   0.60035
C     4.91017   0.32440   1.27604
H     5.34802   1.30440   1.39315
C     3.57323   0.12747   1.55892
H     2.95101   0.94950   1.89413
C     1.07996  -0.77783   3.45300
C     2.05680  -1.21934   4.34073
H     2.88742  -1.80487   3.96922
C     1.96279  -0.90375   5.68174
H     2.72491  -1.24145   6.36893
C     0.89231  -0.15260   6.14433
H     0.82264   0.09499   7.19323
C    -0.08724   0.27493   5.26563
H    -0.92630   0.85177   5.62408
C     0.00318  -0.03846   3.91988
H    -0.77350   0.28926   3.24381
C    -1.23351  -2.22814  -2.68722
C    -2.45451  -1.57331  -2.62251
H    -2.66791  -0.88603  -1.81641
C    -3.41585  -1.80845  -3.59103
H    -4.36410  -1.29542  -3.53746
C    -3.16105  -2.69891  -4.61893
H    -3.91030  -2.87945  -5.37548
C    -1.94577  -3.36514  -4.67778
H    -1.74909  -4.06387  -5.47790
C    -0.98428  -3.13413  -3.71404
H    -0.03279  -3.64816  -3.75010
C     1.57529  -2.03009  -2.39511
C     2.60824  -2.92560  -2.16325
H     2.48647  -3.69914  -1.42090
C     3.78035  -2.82285  -2.89179
H     4.58735  -3.51806  -2.71103
C     3.92173  -1.83112  -3.84712
H     4.83978  -1.75150  -4.41027
C     2.88832  -0.93655  -4.08146
H     2.99883  -0.16289  -4.82650
C     1.71990  -1.03035  -3.35192
H     0.90832  -0.33000  -3.51329
O    -1.39166  -0.59135   0.66037
