38

Ni    0.00000   0.00000   0.00000
Cl   -0.75297  -1.52289  -1.16279
C     4.03365   1.81306   2.90278
C     2.74913   2.05739   2.46331
C     2.16064   1.26236   1.47634
N     0.85490   1.40396   1.03829
C     0.12295   2.43328   1.29816
C    -1.23822   2.42956   0.87713
N    -1.73077   1.50350   0.05969
C    -3.03654   1.77969  -0.09240
C    -3.35528   2.90011   0.63536
N    -2.21123   3.31399   1.24032
C    -2.07425   4.42260   2.14183
C     4.75784   0.75737   2.37368
C     4.19842  -0.05792   1.40720
C     2.91021   0.18279   0.94383
O     2.30236  -0.54921  -0.01477
C     2.84231  -1.80791  -0.37131
O     0.41893   1.04930  -1.90243
C     1.59463   0.92923  -2.67425
H    -3.02891   4.93917   2.22167
H    -1.32293   5.12442   1.77377
H    -1.77802   4.07472   3.13380
H    -4.28328   3.42055   0.75768
H    -3.66937   1.17218  -0.70752
H     0.49463   3.30654   1.83187
H     2.18609   2.85754   2.91811
H     4.46591   2.43739   3.66954
H     5.76048   0.56021   2.72100
H     4.77105  -0.88296   1.01511
H     2.07626  -2.29065  -0.97895
H     3.76217  -1.69056  -0.95385
H     3.03272  -2.41814   0.51500
H     1.45147   1.39863  -3.65413
H     1.88154  -0.11560  -2.81648
H     2.39184   1.45057  -2.14519
H    -0.26973   0.49833  -2.31693
O    -0.24845  -0.83656   1.40034
