38

Ni    0.00000   0.00000   0.00000
Cl   -1.81357  -0.30885   0.79840
N     0.03753   2.37017  -0.24388
C     0.87452   2.38104  -1.45377
C     2.11910   1.50647  -1.28373
N     1.74112   0.28631  -0.61953
C     2.58748  -0.66647  -0.45777
C     2.14005  -1.78862   0.30189
N     0.97807  -1.72360   0.95384
C     0.80485  -2.91540   1.55470
C     1.87981  -3.72129   1.27420
N     2.72476  -3.00139   0.48823
C     3.95920  -3.45342  -0.08808
H     4.15499  -4.47315   0.23671
H     4.78626  -2.81528   0.23030
H     3.89918  -3.43496  -1.17824
H     2.10151  -4.72504   1.57409
H    -0.06467  -3.12587   2.14432
H     3.59893  -0.63254  -0.86186
H     2.87960   2.02022  -0.68076
H     2.55822   1.29486  -2.26625
H     1.16626   3.40013  -1.74385
H     0.27413   1.94994  -2.25986
C     0.67825   3.03069   0.90071
C     0.98773   4.52243   0.74341
H     1.41347   4.89147   1.67352
H     0.08840   5.09425   0.53333
H     1.70918   4.70393  -0.05012
H     0.02161   2.89004   1.76051
H     1.60844   2.50046   1.12141
C    -1.26816   2.96156  -0.59330
C    -2.22911   3.11526   0.57664
H    -3.20844   3.38165   0.18713
H    -1.91818   3.89414   1.26880
H    -2.32039   2.17096   1.10620
H    -1.11740   3.93814  -1.08027
H    -1.72542   2.28583  -1.32193
O    -0.46437  -0.45007  -1.51799
