42

Zn    0.00000   0.00000   0.00000
Cl    1.58644  -1.03616  -1.13978
O     2.93638  -4.97166   3.88840
C     2.00951  -4.23172   3.24129
C     2.29327  -2.88877   2.98528
C     1.38416  -2.10664   2.31569
C     0.14955  -2.63182   1.91277
C    -0.12932  -3.97936   2.17168
C     0.79526  -4.76993   2.81793
N    -0.70620  -1.80258   1.22907
C    -1.97433  -1.93603   1.20846
C    -2.76133  -1.01620   0.40993
C    -4.15909  -0.98797   0.41706
C    -4.80496  -0.04155  -0.36220
C    -4.05908   0.85076  -1.11563
C    -2.66481   0.75958  -1.06986
N    -2.06611  -0.16644  -0.33351
C    -1.77932   1.65803  -1.78515
N    -0.52301   1.57474  -1.58243
C     0.41766   2.34280  -2.22508
C     0.23763   2.86029  -3.51383
C     1.24138   3.58299  -4.12015
C     2.43913   3.82611  -3.44903
C     2.62508   3.31077  -2.16462
C     1.63586   2.56617  -1.56989
O     3.44151   4.54093  -4.00544
H     2.63327  -5.88299   3.98803
H     3.24048  -2.49066   3.31029
H     1.59625  -1.06781   2.11336
H    -1.04922  -4.42097   1.81750
H     0.58412  -5.81772   2.99016
H    -2.51409  -2.68486   1.79163
H    -4.71532  -1.68506   1.02392
H    -5.88371   0.00561  -0.37593
H    -4.53663   1.60610  -1.71978
H    -2.23875   2.39882  -2.44251
H    -0.66905   2.64959  -4.06166
H     1.10523   3.95764  -5.12651
H     3.56075   3.49871  -1.66375
H     1.77186   2.16407  -0.57747
H     3.20056   4.82597  -4.89595
O     0.07460   1.05185   1.26907
