47

Hf    0.00000   0.00000   0.00000
Cl   -2.20035   0.66760  -0.64984
C    -2.37691  -1.32624   1.93880
H    -2.05934  -2.31582   1.61436
H    -3.07763  -0.92517   1.20702
H    -2.88488  -1.41941   2.90695
C     0.20141  -2.54860  -0.07933
H    -0.09938  -3.31649   0.61988
C    -0.22850  -0.96675   2.97839
H    -0.03972  -2.01729   2.72781
H    -0.61901  -0.93312   4.00726
C     0.27390  -1.28357  -1.98578
N    -1.21989  -0.43514   2.02983
C     1.37470   0.38097   1.62874
C     1.06882  -0.19441   2.87248
C     1.91909  -0.08835   3.96395
H     1.65180  -0.54307   4.90875
C    -0.09351  -0.67922  -3.31268
H     0.19623  -1.34531  -4.12916
H     0.41395   0.27437  -3.46121
H    -1.16847  -0.51359  -3.37729
C    -0.56491  -2.10845  -1.18419
C     1.51613  -2.03673  -0.19826
C    -1.94045  -2.58914  -1.55242
H    -2.66067  -1.77165  -1.59356
H    -2.29247  -3.32295  -0.82978
H    -1.91888  -3.06366  -2.53414
C     1.56573  -1.24506  -1.37519
C     3.44727   1.18045   2.62925
H     4.37831   1.71988   2.52926
C     2.79325  -0.60489  -1.95766
H     3.57708  -0.52813  -1.20737
H     2.57558   0.39348  -2.33602
H     3.17559  -1.20233  -2.78747
C    -1.67076   0.88195   2.50260
H    -2.13262   0.80067   3.49495
H    -2.40525   1.28727   1.80635
H    -0.82205   1.56922   2.56481
C     3.11488   0.59832   3.83999
H     3.78078   0.68055   4.68639
C     2.58768   1.07147   1.54479
H     2.86786   1.53853   0.60655
C     2.68449  -2.42728   0.65898
H     2.34556  -2.95021   1.55116
H     3.26721  -1.56170   0.97241
H     3.34771  -3.09595   0.10722
O     0.48673   1.37804  -0.76589
