47

Pd    0.00000   0.00000   0.00000
Cl   -1.36300  -0.52549  -1.66457
C     0.56332   1.89607  -0.50317
N     0.68394   2.81969  -1.47802
C     1.18852   3.98624  -0.96126
C     1.41885   3.80303   0.35627
N     1.03380   2.51179   0.63301
C     1.24484   1.77913   1.78719
N     1.02072   0.51096   1.68007
C     1.76674   2.46679   2.97979
C     1.11908   3.59291   3.48464
C     1.60344   4.22062   4.61750
C     2.73653   3.73743   5.25078
C     3.38576   2.62020   4.75023
C     2.90492   1.98309   3.62259
C     0.37192   2.59990  -2.89769
C     0.90998   3.75360  -3.74671
C    -1.14661   2.51872  -3.04761
C     1.05325   1.30162  -3.33530
C     1.18230  -0.36703   2.75977
C     0.57976  -0.13230   3.99299
C     0.74028  -1.04639   5.01697
C     1.50428  -2.18523   4.82448
C     2.09860  -2.42187   3.59504
C     1.93503  -1.52339   2.55945
H     1.35283   4.86531  -1.54575
H     1.82876   4.46196   1.09260
H     0.22158   3.95691   3.00486
H     1.09180   5.08723   5.00837
H     3.11167   4.22943   6.13512
H     4.26955   2.24197   5.24070
H     3.41234   1.11517   3.22915
H     0.75152   3.50940  -4.79349
H     0.38409   4.68371  -3.54249
H     1.97794   3.89768  -3.59470
H    -1.40744   2.39178  -4.09352
H    -1.61336   3.43052  -2.67976
H    -1.52901   1.66401  -2.49308
H     0.78791   1.07641  -4.36323
H     2.13533   1.40045  -3.26495
H     0.72731   0.46782  -2.70980
H    -0.04083   0.74218   4.12882
H     0.25878  -0.86973   5.96714
H     1.62295  -2.89667   5.62766
H     2.67858  -3.31833   3.43710
H     2.37385  -1.70093   1.58567
O    -0.37546  -1.48830   0.60539
