43

Co    0.00000   0.00000   0.00000
O    -1.74817  -0.03036   2.30940
N    -1.30906   0.63465   1.21151
C    -3.00566   2.36304   1.61524
C    -1.86729   1.74902   0.87445
C    -1.28320   2.36903  -0.28589
C    -1.73766   3.68793  -0.82132
N    -0.31714   1.68034  -0.81688
O     0.37069   2.09913  -1.81775
O     1.64951  -0.02075  -2.38186
N     1.19011  -0.69601  -1.29835
C     2.30691  -2.72197  -2.12191
C     1.48808  -1.94341  -1.14979
C     0.96631  -2.53060   0.05646
C     1.22635  -3.94767   0.45264
N     0.25682  -1.71079   0.77344
O    -0.23750  -2.03114   1.91511
N     1.46937   0.74926   1.06515
C     2.39323   1.53313   0.50605
C     3.44237   2.08259   1.22073
C     3.54972   1.81541   2.57591
C     2.59076   1.00128   3.15646
C     1.57320   0.49144   2.37022
H    -1.25166  -0.93741   2.27760
H     1.16727   0.89274  -2.34026
H    -2.71617   3.33150   2.02017
H    -3.84430   2.51379   0.93836
H    -3.31009   1.70773   2.42667
H    -2.77492   3.62746  -1.14650
H    -1.11411   3.94938  -1.67334
H    -1.65759   4.46494  -0.06251
H     3.17415  -3.15557  -1.62714
H     1.70893  -3.53311  -2.53403
H     2.63297  -2.07281  -2.92993
H     2.29253  -4.12543   0.58694
H     0.70920  -4.14556   1.38884
H     0.85538  -4.62893  -0.31074
H     2.29249   1.74772  -0.54911
H     4.15940   2.70961   0.71556
H     4.35610   2.22919   3.16186
H     2.62371   0.75885   4.20652
H     0.82826  -0.15694   2.81101
O    -1.23454  -0.62905  -0.89595
