24

Hg    0.00000   0.00000   0.00000
N     1.46678   1.69711   1.59636
C    -1.18264   1.84887   0.28506
C    -0.77616   2.70422   1.31702
C    -1.41019   3.92775   1.49123
H    -1.08686   4.58180   2.28944
C    -2.44665   4.31550   0.66137
H    -2.92989   5.26960   0.81083
C    -2.85451   3.47682  -0.35797
H    -3.66302   3.76688  -1.01268
C    -2.22343   2.25588  -0.54713
H    -2.56250   1.61905  -1.35552
C     0.32089   2.30282   2.27877
H     0.63697   3.17882   2.86774
H    -0.08414   1.56088   2.97760
C     2.19836   2.72386   0.86284
H     1.52870   3.21600   0.15861
H     3.01375   2.26188   0.30885
H     2.61659   3.48150   1.54000
C     2.35619   1.05406   2.55556
H     3.19146   0.60294   2.02267
H     1.81975   0.26802   3.08586
H     2.75125   1.76980   3.28958
O     1.00838  -1.30135  -0.11034
