57

C    -0.19939   2.82368   0.58248
H     0.12875   3.84128   0.73972
C    -1.49086   2.40554   0.57246
H    -2.35552   3.03035   0.74253
C     2.06879   2.24982   0.55839
C     2.72512   2.88451  -0.50115
C     4.01384   3.36376  -0.30300
H     4.51797   3.85483  -1.12188
C     4.64325   3.23598   0.91918
H     5.64113   3.62259   1.06030
C     3.98257   2.61823   1.96276
H     4.46090   2.52802   2.92641
C     2.69442   2.12424   1.80418
C     2.10834   3.01207  -1.86490
H     2.24198   4.03344  -2.22984
H     1.03810   2.79824  -1.82826
C     2.78500   2.03818  -2.83275
H     3.83629   2.28630  -2.95829
H     2.29488   2.07130  -3.80167
H     2.71641   1.02248  -2.44769
C     2.02133   1.46046   2.97328
H     0.96851   1.26614   2.74701
H     2.06643   2.12736   3.83824
C     2.71228   0.14016   3.32011
H     2.71046  -0.52079   2.45566
H     2.18533  -0.35527   4.13073
H     3.74341   0.30923   3.62030
C    -2.92257   0.52283   0.61880
C    -3.75202   0.12858  -0.43994
C    -4.99862  -0.40484  -0.14121
H    -5.63951  -0.72180  -0.95038
C    -5.43200  -0.52265   1.16521
H    -6.40423  -0.94056   1.37797
C    -4.62659  -0.08211   2.19657
H    -4.98368  -0.14135   3.21226
C    -3.36718   0.44829   1.94807
C    -3.36053   0.31132  -1.88014
H    -4.11254  -0.17430  -2.50439
H    -2.40115  -0.17072  -2.08138
C    -3.26000   1.78546  -2.27897
H    -4.16318   2.32143  -1.99451
H    -3.13230   1.86297  -3.35524
H    -2.40144   2.25765  -1.80621
C    -2.53151   0.96257   3.09362
H    -2.95554   1.91547   3.42772
H    -1.51117   1.15545   2.75117
C    -2.46369   0.00247   4.28006
H    -3.43355  -0.12381   4.75265
H    -1.77252   0.39249   5.02299
H    -2.10135  -0.96746   3.95314
Cl   -0.05110  -1.07643   2.11360
Cl   -0.00633   0.48225  -2.32782
Cl    2.10220  -0.70319  -0.22270
N     0.70738   1.81069   0.41229
N    -1.62010   1.05858   0.36088
W     0.00000   0.00000   0.00000
O    -0.79601  -1.37273  -0.45218
