32

Pd    0.00000   0.00000   0.00000
P     1.57274  -1.50691  -0.49063
C     1.17314  -3.27408  -0.26414
C     2.33567  -1.49171  -2.16222
C     2.99386  -1.21506   0.61054
C     4.10967  -2.04399   0.63873
C     5.16073  -1.76038   1.49181
C     5.10691  -0.64955   2.31824
C     3.99901   0.18187   2.29293
C     2.94633  -0.09924   1.44114
C    -1.28233   0.92985  -1.87012
C    -0.02784   1.58157  -1.54663
C    -0.17462   2.22573  -0.29608
C    -1.37318   1.74368   0.26395
C    -2.09666   1.01874  -0.76195
H     2.03774  -3.90080  -0.47815
H     0.35366  -3.53316  -0.93534
H     0.84302  -3.41775   0.76355
H     2.74229  -0.50173  -2.36317
H     1.56892  -1.71720  -2.90283
H     3.13289  -2.23077  -2.22559
H     4.15907  -2.91342  -0.00148
H     6.02433  -2.40889   1.51488
H     5.92865  -0.43448   2.98500
H     3.95599   1.04497   2.94033
H     2.05595   0.54207   1.42190
H    -1.52716   0.49948  -2.82947
H     0.74387   1.80038  -2.27368
H     0.52275   2.91788   0.15836
H    -1.81795   2.08488   1.19099
H    -3.11415   0.66931  -0.66858
O    -0.33928  -0.89871   1.34154
