27

Pt    0.00000   0.00000   0.00000
Cl   -0.38161  -1.97647  -1.11362
Cl    1.81167  -0.83156   1.14663
Cl   -1.37301  -0.74977   1.78205
N     0.34297   1.81112   1.13319
C    -0.26996   3.11559   0.81781
C    -1.71228   3.18037   1.31590
C    -2.63851   2.18176   0.61780
C    -2.34569   2.03909  -0.88354
C    -1.53447   3.22455  -1.40278
C    -0.19162   3.40036  -0.68961
N    -1.65942   0.76265  -1.16008
H     1.36128   1.88512   1.08744
H     0.09427   1.52656   2.08437
H     0.30275   3.88555   1.35485
H    -1.74161   2.99647   2.39072
H    -2.06794   4.19832   1.14865
H    -3.66732   2.51088   0.76257
H    -2.53867   1.20378   1.09002
H    -3.29910   2.02380  -1.43143
H    -1.35281   3.10840  -2.47207
H    -2.14617   4.11841  -1.27039
H     0.54585   2.73232  -1.13589
H     0.15130   4.42173  -0.85371
H    -2.32378  -0.01064  -1.08822
H    -1.28510   0.76363  -2.11255
O     0.99596   0.43753  -1.24062
