52

Pt    0.00000   0.00000   0.00000
Cl    0.00012   4.58865   0.00002
S     1.60309   0.06805   1.79565
S    -1.79399   0.06782   1.60415
Si    0.00007   2.41443   0.00004
N     0.37440   2.48003   1.87584
N     1.22967   1.83376   3.78987
N    -1.87610   2.47915   0.37472
N    -3.78871   1.83410   1.23415
C     1.05519   1.50853   2.49526
C     1.91137   1.02821   4.76091
H     1.80542  -0.02121   4.48289
H     1.47410   1.19479   5.74380
H     2.97532   1.27445   4.79189
C     0.62845   3.05298   3.99403
H     0.62252   3.52623   4.95373
C     0.09975   3.43956   2.81094
H    -0.44580   4.32106   2.55015
C    -2.49456   1.50829   1.05735
C    -4.75926   1.03135   1.91988
H    -4.46463  -0.01596   1.84299
H    -5.73763   1.17275   1.46363
H    -4.81079   1.30279   2.97688
C    -3.99361   3.05299   0.63234
H    -4.95329   3.52629   0.62789
C    -2.81144   3.43877   0.10111
H    -2.55133   4.31974  -0.44564
S    -1.60295   0.06802  -1.79561
S     1.79412   0.06780  -1.60402
N    -0.37425   2.48001  -1.87576
N    -1.22952   1.83373  -3.78979
N     1.87625   2.47915  -0.37463
N     3.78885   1.83409  -1.23406
C    -1.05504   1.50850  -2.49519
C    -1.91122   1.02818  -4.76083
H    -1.80524  -0.02125  -4.48282
H    -1.47397   1.19478  -5.74373
H    -2.97518   1.27439  -4.79178
C    -0.62830   3.05295  -3.99396
H    -0.62238   3.52621  -4.95366
C    -0.09961   3.43953  -2.81087
H     0.44595   4.32103  -2.55008
C     2.49470   1.50829  -1.05726
C     4.75939   1.03136  -1.91982
H     4.46465  -0.01594  -1.84310
H     5.73774   1.17261  -1.46346
H     4.81102   1.30296  -2.97679
C     3.99377   3.05296  -0.63222
H     4.95346   3.52625  -0.62775
C     2.81160   3.43874  -0.10097
H     2.55150   4.31969   0.44581
O     0.00006  -1.65000   0.00005
