31

Ni    0.00000   0.00000   0.00000
N    -1.50168   1.12406  -0.02579
N     0.76884   1.59806  -1.10364
C    -1.14576  -1.15650   1.01489
C    -3.71220   2.74593  -0.03981
H    -4.58073   3.38743  -0.04723
C    -2.43546  -0.58835   1.20625
C    -0.14666   2.57169  -1.27816
C    -2.61546   0.71861   0.59997
C    -1.92372  -3.07015   2.28402
H    -1.71130  -4.04365   2.70138
C     1.97505   1.76113  -1.62885
H     2.68845   0.96345  -1.47065
C    -2.55061   3.14733  -0.68239
H    -2.50935   4.09699  -1.18979
C    -0.92611  -2.41320   1.57448
H     0.02361  -2.91451   1.47459
C     2.33846   2.88724  -2.35173
H     3.33473   2.96577  -2.75531
C    -3.42630  -1.25605   1.92001
H    -4.39613  -0.79730   2.04897
C    -3.75325   1.52506   0.60824
H    -4.64831   1.19930   1.11228
C     1.40332   3.89081  -2.53900
H     1.64748   4.78189  -3.09755
C    -1.44641   2.30052  -0.65576
C     0.14224   3.72972  -1.99330
H    -0.60878   4.49242  -2.12086
C    -3.17138  -2.49960   2.46095
H    -3.93880  -3.01949   3.01518
O     1.34812  -0.95131  -0.00956
