45

Zr    0.00000   0.00000   0.00000
Cl    2.14525   0.94676   0.01078
C    -0.06049  -1.87875   1.54769
C     0.93374  -1.03869   2.09978
C     0.35180   0.17392   2.51301
C    -1.05339   0.08537   2.28646
C    -1.31777  -1.19060   1.65558
C    -2.11391   0.97242   2.59603
C    -3.38425   0.58763   2.24117
C    -3.64012  -0.62611   1.58249
C    -2.64323  -1.52473   1.27857
C    -1.82331   2.26758   3.28904
C    -2.93956  -2.79989   0.53481
C    -3.40965  -2.51095  -0.90952
C     0.59529  -0.16711  -2.40273
C     0.90664  -1.42564  -1.84568
C    -0.28039  -2.04821  -1.39953
C    -1.37457  -1.17547  -1.69714
C    -0.82123  -0.00400  -2.34485
C    -2.77879  -1.28660  -1.52066
C    -3.55426  -0.24417  -1.97194
C    -3.01465   0.88615  -2.61095
C    -1.66546   1.03255  -2.81631
C    -1.06510   2.22496  -3.49506
H     0.08322  -2.92981   1.33076
H     1.97293  -1.31373   2.24536
H     0.86645   0.97928   3.02108
H    -4.21757   1.23637   2.46670
H    -4.66034  -0.86283   1.31851
H    -1.16446   2.87729   2.66979
H    -1.32406   2.08586   4.24058
H    -2.74028   2.82066   3.47223
H    -3.72654  -3.35601   1.04931
H    -2.05122  -3.43140   0.52157
H    -4.49117  -2.36937  -0.91206
H    -3.19014  -3.38223  -1.53307
H     1.29568   0.49465  -2.89725
H     1.89264  -1.87922  -1.84332
H    -0.36194  -3.08662  -1.10890
H    -4.62708  -0.29684  -1.85481
H    -3.69128   1.65599  -2.95079
H    -0.51310   1.91990  -4.38405
H    -0.37020   2.72331  -2.81625
H    -1.83691   2.93223  -3.78531
O    -0.70463   1.49154  -0.03626
