55

C    -0.95358   0.16808   1.66785
C    -1.11955  -0.90593   2.56032
C    -1.80430  -0.79227   3.76325
H    -1.88824  -1.65851   4.40135
C    -2.36154   0.41585   4.13054
H    -2.89501   0.50976   5.06381
C    -2.22764   1.50268   3.29031
H    -2.65579   2.45904   3.54839
C    -1.53907   1.37464   2.09099
C     0.51093  -3.37598  -0.58856
H     1.20941  -3.17443  -1.40851
C     0.85033  -4.69999   0.08326
H     0.19661  -4.87260   0.93718
H     1.88214  -4.72051   0.42698
H     0.71097  -5.51650  -0.62340
C    -0.91164  -3.36468  -1.14146
H    -1.03906  -4.13849  -1.89557
H    -1.12236  -2.39768  -1.60248
H    -1.63361  -3.53533  -0.34296
C     2.40550  -1.95585   1.21797
H     2.51806  -2.83897   1.85939
C     3.43074  -1.98349   0.09138
H     3.24815  -1.16925  -0.60762
H     3.39422  -2.92212  -0.45690
H     4.43302  -1.86754   0.50103
C     2.54343  -0.68806   2.05986
H     3.56368  -0.56335   2.41720
H     1.87746  -0.71773   2.92229
H     2.27868   0.18747   1.45321
C     0.51767   3.18963  -1.24985
H     0.83814   2.80629  -2.22512
C     1.72400   3.22348  -0.31546
H     2.49624   3.88348  -0.70516
H     2.14572   2.22122  -0.21789
H     1.43156   3.57655   0.67331
C    -0.12082   4.56371  -1.40482
H    -0.49258   4.92087  -0.44531
H    -0.94802   4.54248  -2.11098
H     0.61977   5.27379  -1.76947
C    -2.11669   1.89256  -1.74009
H    -2.65052   2.84700  -1.64894
C    -1.68231   1.66260  -3.18221
H    -1.05429   0.77622  -3.25287
H    -1.12362   2.51174  -3.56956
H    -2.55806   1.51532  -3.81258
C    -3.00886   0.75561  -1.24342
H    -3.84865   0.59325  -1.91631
H    -3.40024   0.97267  -0.24942
H    -2.42528  -0.17235  -1.18647
Ni    0.00000   0.00000   0.00000
P     0.66063  -1.93416   0.56553
P    -0.66177   1.92945  -0.57663
S    -0.45067  -2.52884   2.22638
S    -1.45602   2.86503   1.10900
O     0.81158  -0.14479  -1.42929
