43

Ru    0.00000   0.00000   0.00000
Cl    1.17024   1.58099  -1.28878
S    -1.05089  -1.55203   1.27037
S    -0.25980   1.64524   1.61664
O    -0.75875  -1.40843   2.68729
O     0.78610   1.77924   2.62162
N     1.77196  -0.71962   0.48628
N     0.29835  -1.20553  -1.55875
C     2.37526  -1.45790  -0.47250
C     3.65398  -1.97870  -0.28679
C     4.31990  -1.73671   0.89998
C     3.68206  -0.98223   1.87594
C     2.41287  -0.49300   1.62613
C     1.55998  -1.67765  -1.66319
C     1.99137  -2.32095  -2.82159
C     1.11708  -2.47224  -3.88150
C    -0.17486  -1.97775  -3.75790
C    -0.53896  -1.34897  -2.58204
C    -2.84627  -1.81897   1.12797
C    -0.55741  -3.26239   0.82757
C    -1.82381   1.58365   2.54680
C    -0.48469   3.29303   0.89278
H     4.11933  -2.56150  -1.06486
H     5.31398  -2.12452   1.05939
H     4.16220  -0.76372   2.81546
H     1.89826   0.12307   2.35279
H     3.00617  -2.67493  -2.89833
H     1.43907  -2.95454  -4.79120
H    -0.88443  -2.06145  -4.56472
H    -1.52596  -0.91967  -2.45193
H    -3.33980  -0.87217   1.31644
H    -3.05933  -2.13865   0.11531
H    -3.13849  -2.56031   1.86232
H    -1.05296  -3.95473   1.49820
H    -0.83798  -3.44406  -0.20458
H     0.51907  -3.33813   0.94980
H    -1.84787   2.43640   3.21507
H    -2.64123   1.60958   1.83484
H    -1.82046   0.65984   3.11647
H    -0.65754   4.00006   1.69574
H     0.42549   3.53505   0.35261
H    -1.32233   3.24194   0.20530
O    -1.49165   0.53416  -0.46060
