53

W     0.00000   0.00000   0.00000
Cl   -0.20785   0.55818  -2.24114
Si   -1.08088  -1.31742   2.94932
Si    0.96825   3.26121  -0.15991
N    -0.93329  -0.08353   1.72417
N    -0.03279   1.92889   0.35837
N     1.62754  -0.70692   0.01962
C    -1.90821   0.77768   1.26356
C    -1.40535   1.90174   0.50071
C    -2.30689   2.85738   0.03246
C    -3.66251   2.71736   0.27304
C    -4.14410   1.64079   1.00359
C    -3.27850   0.68528   1.50644
C     2.75525  -1.37677  -0.29567
C     2.75643  -2.12341  -1.48988
C     3.87828  -2.82237  -1.87458
C     5.02260  -2.79992  -1.08858
C     5.03271  -2.07103   0.08967
C     3.91656  -1.36468   0.49025
C     0.61548  -2.15282   2.69776
C    -2.48881  -2.58481   2.67778
C    -1.26142  -0.48064   4.65647
C     2.61417   2.31460  -0.34190
C     0.47949   4.06168  -1.82815
C     1.01143   4.57678   1.22372
H    -1.92898   3.70712  -0.51435
H    -4.34767   3.45921  -0.10743
H    -5.20289   1.54724   1.18996
H    -3.64918  -0.13893   2.09559
H     1.84528  -2.11955  -2.08202
H     3.86678  -3.39068  -2.79340
H     5.90047  -3.34840  -1.39476
H     5.92213  -2.05289   0.70313
H     3.91789  -0.79310   1.40778
H     0.83980  -2.89409   3.45665
H     1.40864  -1.40484   2.70637
H     0.64197  -2.64815   1.72560
H    -2.21848  -3.53971   3.11791
H    -2.67133  -2.75351   1.61957
H    -3.42273  -2.27315   3.13722
H    -1.29819  -1.22853   5.44039
H    -2.17128   0.10887   4.71955
H    -0.42661   0.18069   4.86701
H     3.45999   2.96835  -0.52334
H     2.54761   1.61277  -1.17481
H     2.81777   1.73608   0.55939
H     1.36065   4.46403  -2.31838
H    -0.22190   4.88235  -1.70554
H     0.03528   3.33388  -2.50251
H     1.67441   5.38971   0.95029
H     1.36777   4.15783   2.15976
H     0.02800   4.99953   1.40640
O    -0.90248  -1.30971  -0.43898
