38

Pt    0.00000   0.00000   0.00000
I    -1.58717  -0.33705   1.99822
S     0.33607   2.14770   0.97415
Si    0.49242   2.50998  -1.99322
Si    1.96913   3.50564   3.19790
C     1.85539   0.11266  -1.07731
C     0.86789   0.65260  -1.89027
C     1.41741   3.35403  -3.41537
C    -1.40075   2.71982  -2.02813
C     1.13329   3.16687  -0.29923
C     1.66167   1.89446   2.18449
C     2.95976   3.00513   4.74073
C     0.26868   4.23689   3.62181
C     3.00705   4.65776   2.10972
C     2.66083   5.88347   1.74581
H     2.54116   0.76025  -0.53792
H     2.25473  -0.87574  -1.28613
H     0.48535   0.01633  -2.68618
H     1.23045   4.42195  -3.41203
H     1.07759   2.96342  -4.36727
H     2.49018   3.20207  -3.35910
H    -1.80758   2.43315  -2.99322
H    -1.70287   3.74517  -1.83502
H    -1.87834   2.08871  -1.27583
H     2.21137   3.09244  -0.19213
H     0.84738   4.19672  -0.10053
H     2.55004   1.53127   1.67165
H     1.30112   1.10405   2.84123
H     3.89195   2.51262   4.48082
H     2.39313   2.32613   5.37031
H     3.20550   3.87837   5.33562
H    -0.24948   4.59955   2.73843
H     0.36151   5.06761   4.31417
H    -0.37091   3.49130   4.08671
H     3.97423   4.28824   1.78388
H     1.72033   6.31766   2.04305
H     3.29618   6.51164   1.14000
O    -0.36021  -1.48441  -0.62393
