67

B     2.38358   2.52447   1.71956
Fe    0.00000   0.00000   0.00000
S     1.25962   1.55404  -1.23998
Cl    3.48906   3.74162   2.60231
S    -0.88339   1.70973   1.85340
S     1.86279  -0.69831   1.13758
N     3.22974   1.93156   0.57372
C     2.84753   1.48842  -0.64507
N     3.92253   0.97072  -1.28299
C     4.99708   1.08310  -0.43641
H     5.97958   0.75077  -0.68867
C     4.56804   1.66613   0.70186
H     5.10479   1.92644   1.58982
C     3.91729   0.29280  -2.58580
C     5.33471  -0.15951  -2.94074
H     6.01864   0.68479  -2.98936
H     5.31274  -0.62968  -3.92030
H     5.70688  -0.89065  -2.22725
C     3.01435  -0.94145  -2.49059
H     3.04418  -1.49259  -3.42582
H     1.98168  -0.66074  -2.28988
H     3.35077  -1.59123  -1.68527
C     3.42840   1.26821  -3.65894
H     4.08023   2.13834  -3.70211
H     2.41747   1.60077  -3.44541
H     3.43503   0.77840  -4.62837
C    -0.13351   3.03637   1.13112
N     1.19447   3.31957   1.18792
C     0.20399   4.92502   0.04215
H    -0.01390   5.80156  -0.52642
N    -0.75399   4.02294   0.43479
C     1.39379   4.49373   0.50056
H     2.36864   4.92412   0.40529
C    -2.17016   4.05978   0.04970
C    -3.03707   4.09978   1.31026
H    -2.85966   3.22132   1.92264
H    -4.08633   4.12226   1.03065
H    -2.81008   4.98754   1.89707
C    -2.45074   5.31316  -0.78139
H    -2.22511   6.21869  -0.22233
H    -3.50805   5.33041  -1.03272
H    -1.88526   5.30561  -1.71032
C    -2.47611   2.82396  -0.80110
H    -2.42608   1.91759  -0.20366
H    -1.75633   2.73861  -1.61418
H    -3.47448   2.89949  -1.22148
N     1.98434   1.46618   2.75694
C     1.65775   0.16586   2.59016
N     1.19788  -0.32845   3.76120
C     1.69077   1.79478   4.05435
H     1.84879   2.78420   4.42854
C     1.21471   0.69542   4.67367
H     0.89097   0.58580   5.68456
C     0.66038  -1.67619   3.98965
C     1.76551  -2.70519   3.73821
H     2.59686  -2.54220   4.42118
H     2.13377  -2.63565   2.71901
H     1.37410  -3.70596   3.89638
C    -0.53632  -1.89488   3.05875
H    -0.22296  -1.98759   2.01958
H    -1.22702  -1.05672   3.13015
H    -1.05954  -2.80520   3.33566
C     0.18472  -1.80345   5.43763
H     0.99795  -1.63349   6.13971
H    -0.18468  -2.81365   5.59294
H    -0.62903  -1.11283   5.64389
O    -1.49227  -0.65929  -0.24692
