57

Pd    0.00000   0.00000   0.00000
Cl    1.85080   1.10086   0.80192
S    -1.41715   0.72248   1.66464
S    -3.47978   2.91714   1.33959
C    -0.57914   1.87327   2.73982
C    -0.02435   3.06427   2.29945
C     0.60851   3.89033   3.21095
C     0.69429   3.52871   4.54499
C     0.14378   2.33318   4.97615
C    -0.49829   1.50387   4.07500
C    -2.28546   1.85490   0.49996
C    -4.78417   1.79778   1.78950
C    -4.76378   0.43392   1.54348
C    -5.84146  -0.34070   1.94104
C    -6.92872   0.22955   2.57771
C    -6.94132   1.59383   2.82258
C    -5.87384   2.37714   2.43171
H    -0.05447   3.34631   1.25742
H     1.04670   4.81602   2.87038
H     1.19624   4.17663   5.24753
H     0.21270   2.04431   6.01391
H    -0.93235   0.56788   4.39364
H    -2.78464   1.21825  -0.23396
H    -1.56426   2.51312   0.00656
H    -3.93542  -0.05034   1.05180
H    -5.82067  -1.40204   1.74464
H    -7.76279  -0.38429   2.88217
H    -7.78493   2.05009   3.31848
H    -5.87200   3.44107   2.61562
S     1.41474  -0.71735  -1.66775
C     0.57623  -1.86654  -2.74409
C     2.28291  -1.85107  -0.50442
C     0.02260  -3.05884  -2.30579
C     0.49427  -1.49440  -4.07841
S     3.47810  -2.91054  -1.34624
H     2.78187  -1.21566   0.23069
H     1.56219  -2.51074  -0.01234
C    -0.61018  -3.88349  -3.21862
H     0.05358  -3.34301  -1.26437
C    -0.14767  -2.32233  -4.98089
H     0.92744  -0.55740  -4.39528
C     4.78081  -1.78876  -1.79506
C    -0.69700  -3.51917  -4.55186
H    -1.04746  -4.81023  -2.87972
H    -0.21740  -2.03134  -6.01800
C     4.75899  -0.42538  -1.54646
C     5.87065  -2.36558  -2.43927
H    -1.19886  -4.16601  -5.25544
C     5.83540   0.35129  -1.94348
H     3.93049   0.05701  -1.05317
C     6.93688  -1.58026  -2.82950
H     5.86993  -3.42915  -2.62522
C     6.92285  -0.21645  -2.58207
H     5.81345   1.41225  -1.74512
H     7.78065  -2.03456  -3.32694
H     7.75594   0.39897  -2.88603
O    -1.33215  -0.78567  -0.57499
