32

Pd    0.00000   0.00000   0.00000
N    -0.42406   0.66195  -1.87501
N    -2.18167  -0.20287   0.40747
C     1.82809  -0.11065  -0.80035
C     1.79537   0.14838  -2.19181
C     2.94806   0.00425  -2.96527
H     2.91495   0.19068  -4.02874
C     4.13269  -0.38351  -2.37126
H     5.02453  -0.49353  -2.97060
C     4.17400  -0.63044  -1.00852
H     5.10242  -0.92865  -0.54357
C     3.03059  -0.50447  -0.22979
H     3.09811  -0.71071   0.82997
C     0.52773   0.60315  -2.74139
C     0.36412   0.99891  -4.17171
H     0.50305   0.12931  -4.81308
H     1.11104   1.74377  -4.44070
H    -0.62934   1.40641  -4.34093
C    -2.42376   1.60962  -1.17289
H    -3.20467   2.24079  -1.60120
H    -1.78276   2.21046  -0.49990
O    -1.66301   1.16748  -2.28438
C    -3.01839   0.45344  -0.40141
C    -4.34503   0.07953  -0.55423
H    -4.98770   0.63133  -1.22242
C    -4.82274  -1.00479   0.16518
H    -5.85190  -1.31536   0.06789
C    -3.95278  -1.67661   1.00871
H    -4.28152  -2.52193   1.59134
C    -2.63927  -1.24557   1.09777
H    -1.93331  -1.73623   1.75886
O     0.40927  -0.41763   1.54291
