44

Pd    0.00000   0.00000   0.00000
N    -0.95837   0.27530   1.76151
N    -0.56204   1.95965  -0.67890
C     0.68588  -1.59108   1.01739
C     0.00469  -1.75884   2.23740
C     0.29792  -2.83877   3.08297
H    -0.23754  -2.94792   4.01138
C     1.25917  -3.75189   2.71619
C     2.02008  -3.55910   1.53327
C     1.75205  -2.44481   0.72526
C    -0.94788  -0.72839   2.57980
C    -1.80456  -0.79514   3.80241
H    -1.18584  -0.67935   4.69135
H    -2.30611  -1.75913   3.85509
H    -2.54488   0.00084   3.78918
O    -1.88933   1.30187   2.00117
C    -2.46570   1.76795   0.79209
H    -3.33870   2.34417   1.10570
H    -2.78392   0.90533   0.17571
C    -1.50942   2.62208  -0.00948
C    -1.59360   4.00610  -0.02927
H    -2.36834   4.50899   0.52829
C    -0.67259   4.72235  -0.77840
H    -0.71753   5.80017  -0.81510
C     0.30100   4.02680  -1.47923
H     1.03086   4.54575  -2.07965
C     0.32482   2.64435  -1.40017
H     1.04910   2.04936  -1.94835
C     0.91951  -5.10863   4.63706
H     1.07884  -4.30719   5.36721
H     1.33844  -6.03521   5.02636
H    -0.15563  -5.24018   4.47226
O     1.60223  -4.86039   3.43585
C     3.68311  -4.58228   0.12345
H     3.03104  -4.50055  -0.74719
H     4.16522  -5.56037   0.13779
H     4.44781  -3.80324   0.07111
O     2.95382  -4.51679   1.32966
C     3.22714  -0.94046  -0.32682
H     2.54072  -0.11194  -0.04860
H     3.60542  -0.76895  -1.33276
H     4.06086  -0.97384   0.38909
O     2.56133  -2.18569  -0.36900
O     0.40514  -0.42383  -1.54231
