60

Ta    0.00000   0.00000   0.00000
O     0.46569  -0.65600   1.75523
O    -0.63522  -1.32083  -1.21122
N     0.72182   1.90346   1.84814
N    -2.29097  -1.14264   0.84436
N     1.53740   0.50365  -0.79092
C     1.56153  -0.34991   2.54054
C     1.83833   1.19246   2.46490
H     2.05837   1.58908   3.46728
H     2.70616   1.34683   1.82409
C     2.79255  -1.09825   2.00254
H     2.65510  -2.16932   2.13117
H     3.69837  -0.78896   2.51809
H     2.86393  -0.88134   0.93841
C     1.30742  -0.78539   3.99772
H     0.47105  -0.24113   4.42957
H     2.19256  -0.60828   4.60351
H     1.07363  -1.84749   4.02032
C    -0.36258   2.12742   2.79266
H    -0.04965   2.77011   3.62941
H    -0.69757   1.17102   3.18720
H    -1.19544   2.60197   2.27378
C     1.14991   3.17100   1.27295
H     0.29482   3.64891   0.79690
H     1.89873   2.97401   0.50954
H     1.56302   3.84880   2.03326
C    -1.90562  -1.73627  -1.56521
C    -2.93327  -1.36864  -0.44624
H    -3.41716  -0.43097  -0.73144
H    -3.70709  -2.14985  -0.37870
C    -1.91302  -3.25004  -1.85648
H    -1.15816  -3.46785  -2.60842
H    -2.88652  -3.55615  -2.23257
H    -1.67975  -3.82722  -0.96631
C    -2.31596  -0.99642  -2.85594
H    -2.22239   0.07736  -2.70175
H    -3.34107  -1.23682  -3.12835
H    -1.65165  -1.28545  -3.66691
C    -3.15412  -0.35558   1.71197
H    -3.33126   0.62064   1.26057
H    -2.65907  -0.21005   2.67190
H    -4.12152  -0.84773   1.89129
C    -1.93072  -2.39296   1.49484
H    -2.80628  -3.04049   1.65646
H    -1.46743  -2.17291   2.45559
H    -1.19634  -2.91861   0.88793
C     2.53168   0.61712  -1.78742
C     3.82518   1.26056  -1.24738
H     3.63098   2.28083  -0.92684
H     4.58670   1.27737  -2.02305
H     4.19912   0.69298  -0.39940
C     1.97606   1.48155  -2.93737
H     1.07496   1.01262  -3.32418
H     2.70751   1.58407  -3.73518
H     1.71435   2.46620  -2.55867
C     2.84491  -0.79540  -2.32226
H     3.35376  -1.37667  -1.55788
H     3.46933  -0.74535  -3.21065
H     1.90333  -1.28626  -2.55766
O    -1.03357   1.23147  -0.37110
