62

Y     0.00000   0.00000   0.00000
S     0.29266  -0.19774   3.23706
Cl   -2.01106  -0.11468   1.49981
O    -1.21316  -1.06398  -1.53632
N    -0.90013   1.56369  -1.54515
C     2.23988   2.85336   1.96239
C     2.00259   3.38403   4.30279
H     2.45412   3.60190   5.25951
S    -0.18610  -3.18699  -0.77593
N     0.26072   2.47984   0.61544
O     1.04206  -0.09281   1.94099
C     0.84465   2.83326   1.84712
C    -0.11095  -1.97198   3.38733
H    -1.04448  -2.12976   2.85625
H    -0.22464  -2.23065   4.43344
H     0.68981  -2.53340   2.91703
O     0.38156  -2.24167   0.23861
C    -1.03881   3.70712  -2.58049
H    -0.87249   4.77085  -2.52237
C     0.94867  -3.09341  -2.20193
H     0.78667  -2.13957  -2.69545
H     0.73029  -3.91019  -2.88094
H     1.97144  -3.13748  -1.84246
C    -1.57090   3.15309  -3.71244
H    -1.83291   3.77355  -4.55801
C    -1.41171   1.00220  -2.64475
C    -1.55642  -0.43638  -2.61326
C    -1.46500   3.08086   2.81194
H    -1.93887   3.29952   3.76493
H    -1.80720   2.10357   2.46845
H    -1.79355   3.82154   2.08308
C     0.62561   3.36102   4.17422
H     0.00086   3.56097   5.03215
C     2.80038   3.13203   3.20032
H     3.87641   3.15223   3.29639
C    -2.05690  -1.04423  -3.76647
H    -2.17173  -2.11771  -3.77594
C    -0.08693   3.35840  -0.24829
C     3.09589   2.57113   0.76915
H     4.14943   2.59190   1.03616
H     2.92271   3.30183  -0.02123
H     2.85768   1.58725   0.35761
C     1.68122  -0.24624   4.44229
H     2.16217   0.72533   4.40833
H     2.38418  -1.01667   4.15015
H     1.28703  -0.43002   5.43435
C    -1.77372   1.75815  -3.79633
C    -0.69754   2.87378  -1.49228
C     0.02470   3.09246   2.95253
C     0.10448   4.83525  -0.06905
H     0.53032   5.04619   0.90953
H    -0.84872   5.35288  -0.16417
H     0.77730   5.21679  -0.83595
C    -2.28258   1.08411  -4.91163
H    -2.56180   1.64529  -5.79024
C     0.48287  -4.80330  -0.16868
H    -0.03567  -5.04610   0.75257
H     1.54483  -4.70611   0.02244
H     0.29278  -5.57163  -0.90819
C    -2.41174  -0.28842  -4.87792
H    -2.80045  -0.80127  -5.74652
O     1.27946   0.05756  -1.04027
