53

Rh    0.00000   0.00000   0.00000
C    -0.21504  -1.49692   1.29637
C    -0.93037  -2.68267   1.06105
C    -1.43601  -3.18754  -0.20786
C    -1.31763  -4.53028  -0.56382
H    -0.83765  -5.23210   0.10280
C    -1.77191  -4.96664  -1.79502
H    -1.67044  -6.00828  -2.06302
C    -2.34636  -4.07393  -2.68408
H    -2.69927  -4.42041  -3.64416
C    -2.46006  -2.73635  -2.33964
H    -2.90610  -2.03695  -3.03104
C    -2.00822  -2.29101  -1.11200
H    -2.10921  -1.24758  -0.83107
N     0.02342  -1.55228   2.63805
C     0.72887  -0.63907   3.43894
C     1.03353  -0.99452   4.75087
H     0.71652  -1.95492   5.12469
C     1.73180  -0.11482   5.55520
H     1.96523  -0.39299   6.57205
C     2.13106   1.11709   5.06261
H     2.67664   1.80158   5.69458
C     1.82188   1.46889   3.75893
H     2.12140   2.43220   3.37454
C     1.12279   0.59868   2.94418
H     0.85492   0.88409   1.92452
N    -0.47987  -2.63466   3.21243
N    -1.05388  -3.30911   2.25385
C    -1.76373  -4.51258   2.57753
H    -1.09592  -5.37570   2.54336
H    -2.57962  -4.65498   1.87089
H    -2.15574  -4.41556   3.58900
C    -0.25198   1.22315  -1.77295
H    -1.32444   1.38903  -1.87383
C     0.41822   1.94825  -0.80935
H    -0.15377   2.66962  -0.22483
C     1.91029   2.19579  -0.80273
H     2.17872   2.64100   0.15877
H     2.15586   2.93140  -1.57712
C     2.74153   0.91440  -1.01072
H     2.97393   0.78075  -2.06872
H     3.69240   1.02394  -0.48456
C     2.03687  -0.32759  -0.50298
H     2.54900  -0.82438   0.32167
C     1.21764  -1.12116  -1.31057
H     1.16889  -2.18635  -1.08166
C     0.88826  -0.82072  -2.75480
H     0.09327  -1.50440  -3.06293
H     1.76317  -1.04019  -3.37817
C     0.42459   0.62959  -2.98887
H     1.27239   1.25943  -3.26471
H    -0.27379   0.64447  -3.82830
O    -1.37453   0.56751   0.71491
