57

C     1.82510  -0.39885  -0.83013
C     3.70828  -0.70067  -1.96658
H     4.58753  -0.41211  -2.50547
C     3.24370  -1.93448  -1.63972
H     3.64647  -2.90440  -1.84721
C     1.10586  -2.63547  -0.48515
C    -0.00052  -1.95244  -0.00114
C    -0.00062  -4.69038  -0.00136
H    -0.00069  -5.77017  -0.00151
C     1.11790  -4.02179  -0.48689
H     1.96514  -4.58259  -0.85297
C     2.86439   1.62686  -1.72398
H     3.90041   1.93670  -1.86003
H     2.46035   2.14438  -0.85458
C     0.28707   0.84816  -3.34152
H    -0.48313   1.20832  -4.01685
H    -0.17705   0.73620  -2.35277
H     0.58576  -0.14121  -3.68062
C     1.22427   3.86767  -3.10885
H     0.62674   4.17915  -3.95977
H     2.07805   4.53555  -3.04160
H     0.62679   3.99902  -2.21191
C     2.86396   1.76655  -4.80191
H     3.21826   0.74154  -4.86367
H     3.73315   2.41682  -4.79280
H     2.31385   1.97427  -5.71344
N     2.82919   0.21732  -1.46358
N     2.08335  -1.73970  -0.95089
Pt    0.00000   0.00000   0.00000
Si    1.75988   2.05300  -3.26708
C    -1.82625  -0.39885   0.82756
C    -3.70950  -0.70066   1.96395
H    -4.58879  -0.41210   2.50276
C    -3.24478  -1.93449   1.63730
H    -3.64742  -2.90441   1.84506
C    -1.10692  -2.63547   0.48280
C    -1.11909  -4.02179   0.48430
H    -1.96640  -4.58257   0.85024
C    -2.86562   1.62685   1.72127
H    -3.90163   1.93663   1.85754
H    -2.46178   2.14442   0.85180
C    -0.28799   0.84841   3.33903
H     0.48219   1.20933   4.01401
H     0.17598   0.73604   2.35027
H    -0.58630  -0.14083   3.67885
C    -1.22521   3.86753   3.10619
H    -0.62774   4.17887   3.95720
H    -2.07885   4.53557   3.03883
H    -0.62756   3.99879   2.20935
C    -2.86553   1.76640   4.79887
H    -3.22018   0.74149   4.86024
H    -3.73452   2.41695   4.78970
H    -2.31559   1.97369   5.71061
N    -2.83045   0.21732   1.46083
N    -2.08442  -1.73971   0.94851
Si   -1.76105   2.05293   3.26436
O    -0.00045   1.65000  -0.00088
