69

Rh    0.00000   0.00000   0.00000
O     4.91866  -0.73393   1.39358
O     0.90566  -4.35168   2.42441
C     1.08464  -0.66834   1.51556
C     4.39696   0.42666   0.88410
N     2.26423  -0.18909   1.92255
O     5.17856   3.34457  -1.23496
C     1.32545  -0.79394  -1.43306
H     2.28801  -1.03813  -0.98339
C    -0.69119   1.14394  -1.70405
H    -0.73352   2.18191  -1.37395
O    -3.69188  -4.87750   1.33988
C     3.05092   0.70467   1.17163
C     0.28070  -1.70020  -1.23912
H     0.49114  -2.57190  -0.62078
C     1.57195  -1.74335   3.52506
H     1.94300  -2.76760   3.59547
H     1.02961  -1.49862   4.44373
C     4.53686   2.44450  -0.43805
C     2.67857  -0.73230   3.21276
H     2.72250   0.07727   3.94856
H     3.66356  -1.19501   3.13687
C    -2.68005  -4.00383   1.60702
C     5.12999   1.30482   0.09425
H     6.16239   1.08718  -0.12073
N     0.67854  -1.60131   2.38080
C     2.47583   1.85592   0.64033
H     1.44758   2.08601   0.88380
C    -1.69518   0.29658  -1.28273
H    -2.49354   0.71845  -0.67158
C     1.05714  -5.75054   2.41413
H     2.10894  -5.93304   2.63057
H     0.81115  -6.17367   1.43559
H     0.44116  -6.22724   3.18280
C    -0.44663  -2.42260   2.17192
C    -1.44972  -4.59507   1.89955
H    -1.40822  -5.67131   1.88558
C     3.19980   2.71408  -0.15931
H     2.75154   3.60316  -0.57036
C     6.53579   3.14127  -1.53704
H     6.82748   3.98341  -2.16272
H     6.69176   2.21047  -2.09313
H     7.15441   3.13430  -0.63328
C     6.25927  -1.05780   1.12066
H     6.43639  -2.01082   1.61757
H     6.94726  -0.30849   1.52558
H     6.43593  -1.17589   0.04685
C    -0.33197  -3.82654   2.17112
C    -2.79230  -2.62198   1.60735
H    -3.72860  -2.13106   1.39965
C     1.45403   0.14592  -2.60976
H     2.23172   0.87458  -2.36541
H     1.79513  -0.41337  -3.48913
C    -1.67856  -1.84913   1.89348
H    -1.77242  -0.77252   1.92973
C    -0.84043  -1.90817  -2.23605
H    -0.46362  -1.71904  -3.24274
H    -1.15642  -2.95328  -2.20135
C    -2.06001  -1.01525  -1.94015
H    -2.73087  -1.55312  -1.26567
H    -2.61495  -0.81678  -2.86442
C    -4.96004  -4.35108   1.03075
H    -5.60136  -5.21258   0.85126
H    -4.92809  -3.73001   0.12997
H    -5.36516  -3.76504   1.86153
C     0.15098   0.89904  -2.93655
H    -0.43852   0.34289  -3.66742
H     0.40601   1.85883  -3.39069
O    -0.62970   1.07367   1.08314
