33

Ag    0.00000   0.00000   0.00000
N    -2.17921   2.15231   0.77940
N    -0.40596   2.42220   1.94918
C    -0.92049   1.69512   0.93645
C    -2.44809   3.14351   1.68170
H    -3.38920   3.64983   1.73202
C    -1.32812   3.31141   2.42343
H    -1.12255   3.98138   3.23253
C     0.91422   2.24569   2.50807
H     1.32398   3.22721   2.76151
H     1.54061   1.77630   1.74006
C    -3.11467   1.65450  -0.20766
H    -2.56350   0.89960  -0.78829
C    -3.55843   2.77887  -1.13981
H    -2.69275   3.26433  -1.58438
H    -4.14155   3.52432  -0.60375
H    -4.17292   2.37205  -1.93764
C    -4.30001   0.98318   0.48166
H    -3.95058   0.19174   1.14096
H    -4.95971   0.54657  -0.26246
H    -4.86798   1.70244   1.06780
C     0.85451   1.36262   3.73117
C     0.84201   1.91156   5.00606
H     0.91420   2.98285   5.13277
C     0.74896   1.09238   6.11826
H     0.74500   1.52772   7.10651
C     0.66288  -0.28022   5.96306
H     0.59131  -0.91861   6.83079
C     0.67290  -0.83386   4.69287
H     0.61090  -1.90380   4.56609
C     0.76843  -0.01539   3.58269
H     0.78377  -0.44881   2.58348
O     0.71530  -1.35179  -0.61927
