33

Zn    0.00000   0.00000   0.00000
Cl   -1.24643  -0.52664   1.78145
O     2.15329   1.60060   1.57688
O     2.84154   0.08197  -1.26160
N     1.87006   3.47878  -1.33554
N     3.42388  -1.68736   1.67468
N     0.01306   2.45481  -2.36344
N     1.22361  -2.03039   2.44702
N     0.79180   1.85967  -0.24298
N     1.71872  -1.01264   0.40381
C     1.85772   2.15278   0.54429
C     2.82552  -0.57270  -0.24692
C     2.64248   3.27903  -0.13851
C     4.04765  -1.01740   0.56479
C     2.30719   4.30161  -2.43181
C     4.14283  -2.10856   2.84752
C     0.86950   2.58126  -1.36909
C     2.08854  -1.57869   1.56040
H     0.20906   2.89894  -3.24419
H     1.54583  -2.29465   3.36232
H    -0.56622   1.59048  -2.36262
H     0.24474  -1.69237   2.34616
H     4.68946  -1.68474  -0.01730
H     3.72985  -3.04360   3.22741
H     4.62647  -0.14651   0.88597
H     5.18183  -2.27901   2.57364
H     4.10518  -1.34900   3.63433
H     2.67820   4.17432   0.48868
H     3.66215   2.95047  -0.35980
H     2.81194   3.70889  -3.20057
H     1.45739   4.82112  -2.87570
H     3.00259   5.04580  -2.04995
O    -0.81317  -0.19210  -1.42280
