35

Rh    0.00000   0.00000   0.00000
Cl   -1.78989  -1.05364  -0.71257
N    -2.31336   4.88376  -0.45675
N    -2.44159   3.54940   1.46821
N    -1.38297   4.08332  -2.43534
N    -0.76878   1.63629  -1.12705
N    -0.45215   1.70978  -2.35968
O    -3.23249   5.67471   1.46129
O    -1.65971   1.43865   1.48788
O     0.71969  -0.61868   1.33828
C    -2.58028   6.16279  -1.08971
C    -2.70018   4.75715   0.88558
C    -2.80343   3.36764   2.86617
C    -1.83255   2.46393   0.85319
C    -1.45253   2.65521  -0.53281
C    -1.71063   3.88906  -1.16007
C     0.31431   0.66562  -2.79989
C     0.68730  -0.32049  -1.86735
C     1.47180  -1.37949  -2.27547
C     1.89119  -1.45323  -3.59928
C     1.52278  -0.48026  -4.51848
C     0.73469   0.58226  -4.12929
H    -1.64911   6.65396  -1.37669
H    -3.22759   6.03263  -1.95777
H    -3.09112   6.78205  -0.35344
H    -3.15185   4.31946   3.25721
H    -3.58702   2.61465   2.94535
H    -1.92982   3.01955   3.41554
H    -0.88011   3.28919  -2.85985
H    -1.42454   4.99303  -2.85939
H     1.76365  -2.14907  -1.57334
H     2.50969  -2.28103  -3.91164
H     1.85462  -0.55666  -5.54274
H     0.43332   1.34758  -4.82771
O     1.09248   1.22465   0.17088
