63

Pd    0.00000   0.00000   0.00000
N    -1.03960  -1.53580   0.97767
H    -0.55612  -1.67684   1.86939
H    -2.00050  -1.24562   1.17091
N     1.04601   1.42679  -0.83866
C    -1.48702   1.33924   0.35131
C    -1.80037   1.73962   1.64610
H    -1.35667   1.22887   2.50031
C    -2.67517   2.79192   1.88112
H    -2.91288   3.07929   2.89625
C    -3.23276   3.48083   0.81887
H    -3.90488   4.30782   1.00038
C    -2.92525   3.10903  -0.47844
H    -3.35668   3.64223  -1.31613
C    -2.07238   2.03868  -0.71145
C    -1.73092   1.58788  -2.07749
C    -1.06414   2.41986  -2.96756
H    -0.86269   3.44347  -2.68133
C    -0.64491   1.94445  -4.19846
H    -0.12992   2.60235  -4.88328
C    -0.87706   0.62364  -4.54289
H    -0.53714   0.24438  -5.49535
C    -1.57352  -0.20630  -3.68078
H    -1.80671  -1.21940  -3.97639
C    -2.02101   0.26238  -2.44742
C    -3.00810  -0.52525  -1.67005
C    -4.25318   0.08582  -1.47965
H    -4.37792   1.09694  -1.82978
C    -5.30601  -0.56898  -0.87614
C    -5.14177  -1.91963  -0.49495
C    -3.91004  -2.51621  -0.67633
H    -3.76439  -3.54365  -0.38023
C    -2.82791  -1.83213  -1.23628
C    -6.70491   1.34620  -0.89460
H    -5.97212   1.96009  -0.35990
H    -7.70673   1.58666  -0.54221
H    -6.64038   1.55699  -1.96757
O    -6.52632  -0.02157  -0.62333
C    -6.15226  -3.88214   0.38641
H    -5.89570  -4.50316  -0.47848
H    -7.14241  -4.15793   0.74528
H    -5.42122  -4.05325   1.18470
O    -6.23880  -2.52340   0.04231
C    -1.48082  -2.50555  -1.22930
H    -0.72107  -1.84896  -1.68408
H    -1.50906  -3.44590  -1.78395
C    -1.04941  -2.79210   0.21563
H    -1.72417  -3.52133   0.68242
H    -0.03796  -3.20743   0.21188
C     1.41812   2.52698  -0.18809
H     0.96617   2.69758   0.78470
C     2.33558   3.42032  -0.70830
H     2.61048   4.29456  -0.13836
C     2.90216   3.18338  -1.95652
C     2.49841   2.02983  -2.62363
H     2.90508   1.78526  -3.59231
C     1.58090   1.18393  -2.03549
H     1.26963   0.27009  -2.53471
C     3.91842   4.10484  -2.54507
H     4.91861   3.72447  -2.33588
H     3.83769   5.10064  -2.11665
H     3.80457   4.16654  -3.62485
O     1.34140  -0.95789  -0.07481
