55

I    -1.46557  -2.14717  -0.64302
Rh    0.00000   0.00000   0.00000
O     1.33542  -1.22087   1.12413
O    -0.39613  -0.32170   2.06860
N    -2.70525   1.29700  -0.17602
N    -1.42155   1.97028  -1.76213
N     1.48722  -0.87544  -2.46174
N     0.47218   0.98917  -2.79390
C    -1.46379   1.17035  -0.67108
C    -3.43170   2.16947  -0.93922
C    -2.63033   2.59356  -1.93989
C     0.71431   0.04156  -1.85806
C     1.73453  -0.50698  -3.75570
C     1.09603   0.66318  -3.97102
C    -0.24754   2.21037  -2.55582
C    -3.24028   0.70101   1.03181
C    -3.51009   1.78321   2.04551
C    -2.43707   2.46100   2.61055
C    -2.65609   3.48266   3.51538
C    -3.95053   3.83191   3.86496
C    -5.02295   3.15591   3.30922
C    -4.80413   2.13714   2.39732
C     2.08358  -2.05689  -1.87043
C     3.57830  -1.87652  -1.79634
C     4.10348  -0.96063  -0.89357
C     5.46752  -0.74574  -0.83185
C     6.31730  -1.44779  -1.67117
C     5.79962  -2.36541  -2.56885
C     4.43272  -2.57612  -2.63559
C     0.63296  -1.03990   2.15153
C     1.00730  -1.68891   3.45519
H    -4.44699   2.41474  -0.70662
H    -2.80956   3.27489  -2.74515
H     2.34016  -1.10129  -4.40763
H     1.03575   1.28291  -4.84114
H     0.40998   2.92086  -2.02469
H    -0.54598   2.64370  -3.51575
H    -4.15372   0.15519   0.77955
H    -2.50601   0.00001   1.43478
H    -1.42941   2.17457   2.34784
H    -1.81659   4.00456   3.94924
H    -4.12350   4.62837   4.57352
H    -6.03325   3.42246   3.58369
H    -5.64382   1.60887   1.96657
H     1.68206  -2.18904  -0.86351
H     1.81693  -2.92570  -2.47861
H     3.43870  -0.42775  -0.23025
H     5.86718  -0.03190  -0.12749
H     7.38348  -1.28281  -1.62276
H     6.46021  -2.91816  -3.22069
H     4.03144  -3.29629  -3.33555
H     0.49662  -2.64893   3.52081
H     0.68594  -1.06295   4.28324
H     2.08036  -1.85622   3.48841
O     0.90339   1.32103   0.40158
