33

Hg    0.00000   0.00000   0.00000
Cl   -2.10086   0.65951   0.71075
O    -0.82881   0.80267  -2.34024
C    -1.41045   1.86007  -2.23592
C    -2.65900   2.21670  -2.98682
H    -2.78157   1.53877  -3.82639
H    -2.63924   3.24580  -3.33572
H    -3.50550   2.08606  -2.31321
N    -0.95440   2.86209  -1.40768
H    -1.54475   3.67727  -1.23990
N     0.04635   2.58081  -0.56832
C     0.46329   3.37333   0.34796
C     1.48956   2.82794   1.24925
N     1.59433   1.49506   1.30485
C     2.31614   3.65829   2.00369
H     2.21771   4.72941   1.93580
C     3.26354   3.08595   2.83526
H     3.91186   3.70937   3.43292
C     3.36766   1.70563   2.88023
H     4.09320   1.21835   3.51154
C     2.50957   0.95277   2.09091
H     2.55618  -0.12846   2.08456
C    -0.03118   4.75026   0.57053
C    -0.23597   5.63101  -0.49455
H     0.02978   5.34766  -1.50251
N    -0.26570   5.10088   1.83232
C    -0.73134   6.89664  -0.22261
H    -0.89577   7.60094  -1.02507
C    -1.00849   7.24048   1.09017
H    -1.40582   8.21076   1.34166
C    -0.74246   6.30305   2.08059
H    -0.91650   6.52469   3.12500
O     1.01468  -1.30017  -0.04963
