47

Cu    0.00000   0.00000   0.00000
P    -0.25685   1.68722   1.55912
N    -0.21462   0.78117  -1.81623
N    -1.54447  -1.15291  -0.59145
N    -1.85564   6.63434   1.58124
N    -3.21507  -1.70032   3.54521
N     4.24918   3.45829   3.18143
C     0.35672   1.88696  -2.27581
H     1.20376   2.24974  -1.70742
C    -0.07188   2.53403  -3.41669
H     0.43188   3.42121  -3.76457
C    -1.16153   2.00776  -4.10499
H    -1.53123   2.49023  -4.99673
C    -1.76325   0.85995  -3.62833
H    -2.62256   0.44331  -4.12877
C    -1.25987   0.25525  -2.47612
C    -1.81819  -0.96181  -1.89284
C    -2.55706  -1.89196  -2.62276
H    -2.73705  -1.73888  -3.67487
C    -3.02552  -3.02572  -1.98677
H    -3.59825  -3.76039  -2.53200
C    -2.73809  -3.20897  -0.63915
H    -3.08695  -4.07634  -0.10379
C    -1.98686  -2.24882   0.01091
H    -1.73532  -2.35745   1.05662
C    -0.84167   3.42565   1.24097
H    -0.29651   3.78999   0.36292
H    -1.89051   3.32763   0.93707
C    -0.72219   4.45190   2.37516
H    -1.22468   4.10470   3.28185
H     0.32434   4.66509   2.60968
C    -1.34879   5.68031   1.95319
C    -1.43198   1.13963   2.88039
H    -1.44441   1.84416   3.71664
H    -2.43005   1.13450   2.42748
C    -1.07048  -0.27501   3.37180
H    -0.39718  -0.77602   2.66317
H    -0.56047  -0.24420   4.33724
C    -2.25409  -1.08258   3.49195
C     1.26724   1.91628   2.57650
H     1.08001   2.63498   3.38112
H     1.50339   0.94763   3.02661
C     2.44859   2.35220   1.69824
H     2.85967   1.48130   1.17881
H     2.13840   3.09318   0.95206
C     3.47668   2.94822   2.51123
O     1.22447  -0.87431   0.67731
