30

Hf    0.00000   0.00000   0.00000
Cl   -2.18330   0.00000  -0.71666
C     0.89924  -1.16838   1.88234
C     1.62362  -1.63419   0.75192
C     0.75705  -2.44035  -0.02716
C    -0.51022  -2.43568   0.58160
C    -0.43867  -1.62669   1.74259
C     1.32780  -0.00000   2.76644
C     2.83644  -0.00001   3.03116
C     0.60243  -0.00000   4.11554
H     3.41255  -0.00000   2.11143
H     3.10955  -0.88314   3.60389
H     2.68928  -1.54764   0.59100
H     1.05301  -3.04559  -0.87224
H    -1.35814  -3.03730   0.28672
H    -1.23017  -1.53205   2.47308
H    -0.47659  -0.00001   3.99957
H     0.88377  -0.88323   4.68412
C     0.89925   1.16837   1.88234
C     1.62362   1.63419   0.75192
C     0.75706   2.44035  -0.02716
C    -0.51021   2.43568   0.58160
C    -0.43867   1.62668   1.74259
H     3.10955   0.88312   3.60389
H     0.88377   0.88323   4.68412
H     2.68929   1.54764   0.59100
H     1.05301   3.04559  -0.87224
H    -1.35813   3.03730   0.28672
H    -1.23016   1.53204   2.47308
O     0.59926   0.00000  -1.53733
