47

Pd    0.00000   0.00000   0.00000
O     3.39155   1.85549  -1.00222
O     2.45440   0.71195   0.68583
O     3.60837   4.19468   0.58516
O     2.86945   5.63201  -0.97266
N     0.37382  -2.12183  -0.05819
N     0.84524  -0.16267  -1.89353
C     0.00147   1.97281  -0.09590
C     1.26680   2.56738  -0.15316
C     1.39353   3.95828  -0.26457
C     0.25434   4.74549  -0.36263
H     0.35700   5.81666  -0.43997
C    -0.99865   4.15565  -0.33100
H    -1.88323   4.77155  -0.40284
C    -1.12620   2.78382  -0.17533
H    -2.11434   2.33948  -0.10306
C     2.48980   1.72349  -0.21080
C     3.63604  -0.07309   0.76747
H     3.46655  -0.80090   1.55873
H     4.48515   0.56905   1.01150
H     3.83576  -0.57434  -0.18539
C     2.74162   4.57317  -0.16141
C     4.12268   6.29750  -0.92228
H     4.28496   6.72544   0.06941
H     4.08254   7.08049  -1.67526
H     4.93057   5.59518  -1.13746
C     0.11648  -3.07099   0.81903
H    -0.63716  -2.85132   1.56625
C     0.77005  -4.30700   0.81088
H     0.51827  -5.04444   1.55600
C     1.72591  -4.55516  -0.14423
H     2.25637  -5.49546  -0.17803
C     2.01541  -3.56380  -1.09702
C     2.98821  -3.73539  -2.12215
H     3.53116  -4.66829  -2.15534
C     3.22498  -2.76013  -3.03171
H     3.96197  -2.89420  -3.80941
C     2.50763  -1.53021  -2.99832
C     2.71168  -0.50419  -3.93502
H     3.45066  -0.63052  -4.71188
C     1.95881   0.64195  -3.84363
H     2.07914   1.44814  -4.54862
C     1.03396   0.77278  -2.80774
H     0.43591   1.67200  -2.72150
C     1.55066  -1.31402  -1.98223
C     1.30206  -2.34694  -1.01539
O    -0.68359   0.05664   1.50066
