63

Ir    0.00000   0.00000   0.00000
N    -0.01101   2.01647  -0.37082
N     0.08303   0.00008   2.15660
C    -0.19611   0.00003  -1.91518
C    -0.31925   1.23429  -2.57226
C    -0.76773   1.21717  -3.89304
H    -1.00835   2.12633  -4.42280
C    -1.00660   0.00003  -4.51595
H    -1.40042   0.00003  -5.52232
C    -0.02339   2.34868  -1.67960
C     0.29301   3.67748  -2.08945
C     0.58167   4.03572  -3.42263
H     0.64781   3.26801  -4.17416
C     0.84625   5.33628  -3.75964
H     1.07347   5.59113  -4.78418
C     0.84374   6.34359  -2.78587
H     1.03704   7.36614  -3.07439
C     0.64180   6.01980  -1.47231
H     0.69226   6.77482  -0.70128
C     0.39297   4.68731  -1.09451
C     0.28416   4.29730   0.25757
H     0.35412   5.03766   1.03905
C     0.14584   2.97546   0.55941
H     0.13537   2.64189   1.58831
C    -1.97568   0.00012   0.46586
C    -3.05293   0.00006  -0.41430
H    -2.87117   0.00006  -1.47997
C    -4.36156   0.00003   0.03790
H    -5.17672   0.00005  -0.67198
C    -4.62889   0.00001   1.39776
H    -5.64926   0.00002   1.75290
C    -3.58415   0.00000   2.29786
H    -3.80319  -0.00001   3.35564
C    -2.26251   0.00004   1.84829
C    -1.12174   0.00004   2.76074
C    -1.20902   0.00001   4.15425
H    -2.17130   0.00000   4.63996
C    -0.05441   0.00002   4.91320
H    -0.11141   0.00002   5.99209
C     1.17526   0.00004   4.26969
H     2.09950   0.00004   4.82480
C     1.19035   0.00007   2.88660
H     2.11760   0.00005   2.32756
N    -0.01102  -2.01644  -0.37083
C    -0.31925  -1.23424  -2.57226
C    -0.76773  -1.21712  -3.89304
H    -1.00835  -2.12628  -4.42280
C    -0.02339  -2.34864  -1.67961
C     0.29300  -3.67743  -2.08945
C     0.58167  -4.03568  -3.42263
H     0.64782  -3.26796  -4.17416
C     0.84625  -5.33623  -3.75964
H     1.07347  -5.59108  -4.78418
C     0.84374  -6.34355  -2.78587
H     1.03703  -7.36609  -3.07439
C     0.64180  -6.01976  -1.47231
H     0.69225  -6.77478  -0.70128
C     0.39297  -4.68726  -1.09451
C     0.28416  -4.29726   0.25757
H     0.35412  -5.03762   1.03905
C     0.14584  -2.97542   0.55941
H     0.13538  -2.64185   1.58830
O     1.64427   0.00005  -0.13740
