55

Ni    0.00000   0.00000   0.00000
P    -0.60321   1.22687   1.61842
P     1.04100  -1.25663  -1.35100
C     1.81412   2.32423   2.65993
H     1.60444   2.11509   3.70693
H     2.51405   3.15683   2.61728
H     2.29539   1.44939   2.22445
C     0.54335   2.66881   1.89667
H     0.82033   3.01324   0.89079
C    -0.32562   3.74595   2.54710
H    -0.46724   3.52368   3.60844
H     0.14426   4.72690   2.46515
C    -1.66675   3.70004   1.82451
H    -1.53095   4.00048   0.78337
H    -2.39983   4.36487   2.28350
C    -2.14067   2.24672   1.87498
H    -2.48777   2.01414   2.89159
C    -3.24659   1.92527   0.87915
H    -2.92225   2.15093  -0.13466
H    -4.13636   2.51419   1.09543
H    -3.51169   0.86931   0.93059
C     3.21012   0.47722  -0.83170
H     2.52570   1.31784  -0.94694
H     4.21028   0.81318  -1.10066
H     3.21943   0.17222   0.21520
C     2.77626  -0.68450  -1.71516
H     3.44190  -1.53976  -1.53889
C     2.75631  -0.35823  -3.20890
H     2.24147   0.59199  -3.36801
H     3.76934  -0.27495  -3.60517
C     1.97274  -1.47920  -3.88103
H     2.52202  -2.42031  -3.79212
H     1.81149  -1.27839  -4.94068
C     0.63716  -1.58093  -3.13935
H     0.00404  -0.73854  -3.44846
C    -0.11739  -2.87864  -3.38821
H     0.49711  -3.74400  -3.14433
H    -0.39833  -2.94782  -4.43771
H    -1.02812  -2.91418  -2.79180
C    -0.50444   0.15869   3.11625
H    -0.10380   0.67790   3.99008
H    -1.52095  -0.17464   3.36075
C     0.32120  -1.03219   2.71003
C     0.83094  -1.89119   3.67474
H     0.67969  -1.66251   4.72098
C     1.52379  -3.02926   3.30794
H     1.92865  -3.68632   4.06367
C     1.67642  -3.33327   1.96801
H     2.18982  -4.23821   1.67277
C     1.17439  -2.48476   0.99100
C     1.27962  -2.85335  -0.46610
H     0.45875  -3.53164  -0.72409
H     2.22393  -3.34647  -0.71356
C     0.51857  -1.29556   1.34622
O    -0.31173   1.14909  -1.14233
