55

C     1.63534   0.21193  -2.34205
H     2.08691   0.99266  -1.74089
C     2.04330   0.01161  -3.63844
H     2.82475   0.62746  -4.05376
C     1.42652  -0.98002  -4.39992
H     1.71731  -1.15318  -5.42313
C     0.42928  -1.72298  -3.80561
H    -0.10153  -2.50175  -4.32814
C     0.05906  -1.47610  -2.48493
C    -0.97605  -2.29100  -1.85629
C    -2.51782  -4.06278  -2.12740
C    -2.27785  -4.89719  -1.02684
H    -1.36912  -4.77004  -0.45926
C    -3.18780  -5.87873  -0.69098
H    -3.03343  -6.53101   0.15444
C    -4.34250  -6.02269  -1.43554
C    -4.60148  -5.20924  -2.52418
H    -5.52487  -5.34274  -3.06632
C    -3.68759  -4.24050  -2.87991
H    -3.86512  -3.58836  -3.72047
C     0.67936   2.09802   1.86373
C    -0.20688   1.20548   2.52021
H    -1.04833   1.61546   3.06144
C     0.04947  -0.15229   2.57341
H    -0.57180  -0.79525   3.18403
C     1.12099  -0.72579   1.84221
C     1.95039   0.16348   1.10513
H     2.87503  -0.20733   0.67634
C     1.77822   1.56807   1.21140
H     2.51351   2.22728   0.76799
C     0.42444   3.57038   1.92038
H    -0.40908   3.82456   1.26431
H     1.29788   4.13249   1.59842
H     0.15645   3.87586   2.93034
C     2.37466  -2.25526   3.33039
H     3.29756  -1.69799   3.18134
H     2.62695  -3.29089   3.54270
H     1.85897  -1.84104   4.19374
C     1.49262  -2.17392   2.07935
H     0.56689  -2.72834   2.26716
C     2.19304  -2.81949   0.88415
H     1.61428  -2.66055  -0.02583
H     2.28506  -3.88960   1.04994
H     3.19327  -2.41659   0.74318
N     0.66332  -0.50441  -1.74456
N    -1.60660  -3.14408  -2.56878
N    -5.08801  -8.55864  -2.09316
H    -5.25893  -8.31964  -3.05551
H    -4.16108  -8.91875  -1.94043
O    -6.82277  -6.92264  -1.37289
O    -5.21569  -7.81886   0.28464
S    -1.23449  -1.97697  -0.15527
S    -5.49286  -7.32254  -1.02909
Os    0.00000   0.00000   0.00000
O    -1.20233   0.87112  -0.71976
