19

Au    0.00000   0.00000   0.00000
Cl   -0.25207   1.12912  -1.89348
Cl   -2.23889  -0.41397   0.16014
N     0.23685  -1.13316   1.72436
C    -0.03724  -0.60203   2.91312
C     0.05729  -1.36571   4.07088
C     0.44512  -2.69019   3.98140
C     0.74053  -3.21781   2.73236
C     0.62222  -2.40118   1.62551
C    -0.47831   0.83886   2.96230
O     0.07788   1.63501   1.94886
H    -0.17414  -0.91588   5.02342
H     0.52266  -3.29896   4.86907
H     1.05617  -4.24116   2.61388
H     0.84263  -2.76177   0.63264
H    -1.56147   0.86201   2.78404
H    -0.27477   1.25868   3.95401
H     1.02883   1.75418   2.08823
O     1.63833   0.19537  -0.01483
