31

Pd    0.00000   0.00000   0.00000
Cl    1.68457   1.55041  -0.05967
N     1.45748  -1.40711  -0.10165
H     2.07503  -1.22273  -0.89727
N    -1.46227   1.40586   0.00245
H    -2.13981   1.21612  -0.74140
C     2.15820  -1.81782   1.10487
C     1.39479  -2.80218   0.30436
H     0.42297  -3.13719   0.64678
H     1.92626  -3.51798  -0.31191
C     3.66766  -1.80895   1.05756
H     4.03710  -2.25509   0.13635
H     4.07337  -2.36770   1.89777
H     4.02823  -0.78310   1.11697
C     1.55252  -1.27814   2.38291
H     1.88360  -0.24758   2.52899
H     1.86972  -1.87324   3.23677
H     0.45788  -1.30714   2.31564
C    -2.06700   1.82523   1.25696
C    -1.36846   2.80373   0.39257
H    -0.37302   3.14082   0.65598
H    -1.94647   3.51540  -0.18540
C    -1.36357   1.29410   2.48765
H    -0.27754   1.32184   2.33488
H    -1.68234   0.26484   2.66658
H    -1.61297   1.89558   3.35934
C    -3.57554   1.81669   1.32745
H    -3.93027   0.79147   1.42199
H    -4.01560   2.25641   0.43467
H    -3.91472   2.38154   2.19267
O    -1.21299  -1.11697   0.05932
