19

Zn    0.00000   0.00000   0.00000
Cl   -0.95546   0.66826   1.86458
N     1.54721  -1.29246   0.75680
H     2.31724  -1.44781   0.11138
N    -1.49909  -1.28463  -0.86148
H    -2.29038  -1.46360  -0.24833
C    -1.87969  -1.12864  -2.25573
H    -2.93540  -1.13608  -2.49287
H    -1.28952  -0.41024  -2.80736
C    -1.23210  -2.36625  -1.79330
H    -0.18852  -2.52139  -2.02630
H    -1.81724  -3.27204  -1.69670
C     1.31952  -2.40205   1.66592
H     0.28587  -2.56735   1.93309
H     1.90407  -3.30176   1.52245
C     1.97856  -1.17525   2.14024
H     3.04245  -1.18326   2.33753
H     1.40562  -0.47826   2.73549
O     0.69558   0.64832  -1.34846
