47

Mo    0.00000   0.00000   0.00000
Se   -0.62174  -0.40831   3.71392
Cl    1.40962  -1.80179   0.59513
Cl   -0.89544  -1.46724  -1.61070
Cl   -0.97008   1.83044  -1.09758
S     1.93206   0.18708  -2.08268
C    -1.78280  -0.21840   1.01157
C    -0.80241  -0.22203   1.91119
C     1.33261  -0.15032   3.86848
H     1.77173  -0.60269   2.97794
H     1.51307   0.92531   3.85292
C     1.86899  -0.78336   5.13892
H     1.38154  -0.33480   6.00978
H     1.63847  -1.85202   5.14095
C     3.38045  -0.58971   5.24472
H     3.60915   0.47815   5.22549
H     3.86122  -1.04709   4.37745
C     3.93685  -1.20654   6.52196
H     5.01250  -1.05938   6.57896
H     3.73431  -2.27484   6.54959
H     3.48074  -0.74897   7.39723
C     2.19886  -1.52902  -2.68164
H     1.99317  -2.18951  -1.83829
H     1.46544  -1.71175  -3.46535
C     3.62406  -1.72078  -3.16351
H     3.75899  -2.74594  -3.50213
H     4.32126  -1.52985  -2.35158
H     3.85938  -1.04819  -3.98410
C     0.99775   0.90751  -3.48214
H     0.09869   0.30445  -3.62015
H     0.71473   1.90163  -3.13429
C     1.82632   1.00005  -4.74768
H     1.26503   1.54484  -5.50386
H     2.05928   0.01468  -5.14342
H     2.75473   1.53273  -4.55537
C    -3.20897  -0.28663   0.97211
C    -3.89171  -0.11926  -0.23848
H    -3.32632   0.06635  -1.14142
C    -5.27032  -0.18491  -0.26964
H    -5.79384  -0.05317  -1.20479
C    -5.98422  -0.42039   0.89590
H    -7.06243  -0.47269   0.86672
C    -5.31628  -0.58885   2.10070
H    -5.87482  -0.77220   3.00654
C    -3.93962  -0.52169   2.14415
H    -3.40526  -0.65256   3.07784
O     1.05183   1.09992   0.63745
