29

Zn    0.00000   0.00000   0.00000
I    -1.54708   0.57079  -1.97117
N     1.48177  -1.15606  -1.20817
N    -1.49076   0.03707   1.66385
O    -0.82832  -2.23350  -0.21046
O     0.80882  -1.44683   1.72481
C     1.10419  -2.38725  -1.56242
C     1.83993  -3.16354  -2.45343
H     1.49552  -4.15042  -2.72169
C     3.00816  -2.63842  -2.98266
H     3.60294  -3.21266  -3.67677
C     3.39274  -1.36232  -2.60454
H     4.29336  -0.91230  -2.99024
C     2.59279  -0.65711  -1.71279
H     2.86147   0.34225  -1.39743
C    -0.15326  -2.87136  -0.97977
H    -0.46678  -3.87490  -1.31339
C    -1.12237  -0.58983   2.78418
C    -1.86463  -0.51091   3.95920
H    -1.52741  -1.02435   4.84643
C    -3.03005   0.23911   3.95863
H    -3.62994   0.32176   4.85217
C    -3.40554   0.88042   2.78943
H    -4.30401   1.47436   2.74105
C    -2.59923   0.75068   1.66439
H    -2.86022   1.24016   0.73567
C     0.13131  -1.35087   2.71786
H     0.43904  -1.82737   3.66386
O     1.00342   1.13897   0.64683
