25

Zn    0.00000   0.00000   0.00000
I     0.95895  -1.55163  -1.69108
N    -2.33697  -0.83905   0.14614
O    -0.09318  -0.98409   1.85536
C    -2.26729  -0.27599   2.53292
C    -2.89948  -0.18564   1.26407
C    -4.06504   0.57463   1.17329
H    -4.55628   0.70893   0.22454
C    -4.62737   1.16624   2.28813
H    -5.53280   1.74276   2.17660
C    -4.05400   1.01083   3.54291
H    -4.50851   1.45939   4.41138
C    -2.88348   0.29956   3.65563
H    -2.39554   0.20510   4.61439
C    -0.91731  -0.73926   2.72629
H    -0.59433  -0.78857   3.77983
C    -2.92632  -0.50177  -1.14805
H    -2.32995  -0.97005  -1.93137
H    -2.91290   0.57712  -1.30107
H    -3.95282  -0.87258  -1.24288
C    -2.31696  -2.29822   0.29654
H    -1.86806  -2.59270   1.24076
H    -1.73538  -2.73786  -0.51201
H    -3.33593  -2.69944   0.25248
O    -0.26774   1.57784   0.40153
