19

Zn    0.00000   0.00000   0.00000
Br   -0.68737  -2.19872  -0.42283
N    -0.71571   0.95246  -1.86681
O    -1.85714   1.04601   0.59946
C    -1.84279   1.65117  -1.68294
C    -2.46696   2.34648  -2.71112
H    -3.37406   2.89836  -2.52393
C    -1.88728   2.30597  -3.97211
H    -2.33851   2.83241  -4.79909
C    -0.72482   1.58118  -4.14935
H    -0.24983   1.52964  -5.11624
C    -0.15155   0.90384  -3.06522
C    -2.37869   1.63677  -0.31912
H    -3.30693   2.20607  -0.16003
C     1.09679   0.11042  -3.20523
H     1.47547   0.14637  -4.22212
H     0.90763  -0.92934  -2.93376
H     1.86050   0.49708  -2.52868
O     1.19650   1.07099   0.37930
