38

C     0.65386   2.13456  -0.73858
H     1.10616   2.89890  -0.12204
C    -0.73627   2.03340  -1.03704
C    -0.87898   1.03580  -2.03202
H    -1.78853   0.78019  -2.55452
C     0.40746   0.53120  -2.35065
H     0.61701  -0.16299  -3.15055
C     1.36488   1.20970  -1.55772
C    -1.81982   2.85321  -0.36875
C    -3.20520   2.42666  -0.86082
H    -3.37433   1.37080  -0.65666
H    -3.30729   2.60501  -1.92856
H    -3.97242   3.00113  -0.34749
C    -1.60088   4.34164  -0.67482
H    -1.61477   4.51153  -1.74864
H    -0.64469   4.68228  -0.28668
H    -2.38784   4.93795  -0.22004
C    -1.73745   2.61439   1.14908
H    -2.49995   3.20027   1.65923
H    -0.76603   2.90855   1.54683
H    -1.91148   1.55705   1.37842
C     2.86663   1.01793  -1.53176
C     3.28308   0.67156  -0.09163
H     3.01527   1.46731   0.60338
H     4.36117   0.53061  -0.04014
H     2.80272  -0.25938   0.23026
C     3.28421  -0.12917  -2.45549
H     2.79563  -1.05559  -2.15857
H     4.35994  -0.27642  -2.39810
H     3.02876   0.09430  -3.48847
C     3.55786   2.31437  -1.97732
H     3.24086   2.58390  -2.98181
H     4.63697   2.18302  -1.97869
H     3.31266   3.13568  -1.30923
Cl    0.92655  -2.07111  -0.33416
Cl   -2.06893  -0.90549   0.39414
Hf    0.00000   0.00000   0.00000
O     0.46117   0.19098   1.57269
