39

Zn    0.00000   0.00000   0.00000
Br   -1.43994   0.51090   1.76884
O     1.24420  -1.50713   0.92082
O     5.38001  -5.22969   3.93603
C     3.13622  -2.81105   1.44650
C     4.37978  -3.27272   1.00436
H     4.73300  -2.98766   0.02417
C     5.15745  -4.08043   1.80407
H     6.11338  -4.42114   1.43937
C     4.70517  -4.44851   3.07566
C     3.45666  -3.98706   3.52320
H     3.12997  -4.28173   4.50774
C     2.68700  -3.18314   2.72454
H     1.72840  -2.81986   3.06282
C     2.33711  -1.95653   0.60389
H     2.77860  -1.71257  -0.37670
C     6.65163  -5.72444   3.57515
H     6.99055  -6.30880   4.42853
H     7.35854  -4.91079   3.38942
H     6.59390  -6.36989   2.69391
O    -1.24963  -1.49620  -0.93117
C    -2.34140  -1.94736  -0.61287
C    -3.13919  -2.80492  -1.45367
C    -4.38162  -3.26826  -1.01018
H    -4.73474  -2.98265  -0.03002
C    -5.15821  -4.07865  -1.80822
H    -6.11325  -4.42072  -1.44239
C    -4.70599  -4.44778  -3.07946
O    -5.38002  -5.23115  -3.93841
C    -6.65017  -5.72838  -3.57587
H    -6.98820  -6.31515  -4.42793
H    -7.35895  -4.91619  -3.39124
H    -6.59029  -6.37198  -2.69352
C    -3.45842  -3.98495  -3.52824
H    -3.13167  -4.28051  -4.51253
C    -2.68982  -3.17843  -2.73120
H    -1.73200  -2.81395  -3.07050
H    -2.78262  -1.70323   0.36777
O     1.01984   0.36743  -1.24396
