39

Zn    0.00000   0.00000   0.00000
I     1.28023   0.63249  -2.04890
O    -1.31720  -1.50388  -0.81043
O    -5.57726  -4.87118  -4.06138
C    -3.23709  -2.73423  -1.40866
C    -4.46315  -3.24563  -0.97305
H    -4.77860  -3.07288   0.04557
C    -5.27169  -3.96296  -1.82633
H    -6.21288  -4.34529  -1.46466
C    -4.86951  -4.18645  -3.14732
C    -3.63966  -3.67268  -3.58922
H    -3.35185  -3.85383  -4.61247
C    -2.83866  -2.96012  -2.73663
H    -1.89431  -2.55823  -3.07157
C    -2.40179  -1.97801  -0.50879
H    -2.80779  -1.84198   0.50850
C    -6.83144  -5.41227  -3.70721
H    -6.73662  -6.14830  -2.90358
H    -7.20134  -5.90437  -4.60485
H    -7.53390  -4.62929  -3.40770
O     1.30735  -1.51289   0.81190
C     2.38780  -1.99336   0.50537
C     3.22831  -2.74508   1.40413
C     4.45143  -3.25894   0.96318
H     4.75995  -3.09200  -0.05854
C     5.26604  -3.97090   1.81516
H     6.20496  -4.35491   1.44940
C     4.87288  -4.18677   3.14013
O     5.58737  -4.86544   4.05346
C     6.84030  -5.40624   3.69444
H     6.74179  -6.14718   2.89581
H     7.21696  -5.89229   4.59255
H     7.53924  -4.62368   3.38580
C     3.64570  -3.67112   3.58719
H     3.36463  -3.84680   4.61326
C     2.83888  -2.96338   2.73601
H     1.89654  -2.56012   3.07493
H     2.78762  -1.86399  -0.51524
O    -0.84359   0.42657   1.35237
