53

C    -2.32979   1.68868   1.76648
H    -1.24846   1.85088   1.70829
H    -2.67185   1.90776   2.77574
H    -2.83041   2.36783   1.07628
C    -2.63264   0.27795   1.41118
C    -3.79846  -0.46983   1.63106
H    -4.69199  -0.13898   2.11936
C    -3.56084  -1.71724   1.09334
C    -4.42961  -2.92168   1.06945
H    -3.83193  -3.83079   1.08823
H    -5.04925  -2.93477   0.17256
H    -5.09060  -2.90899   1.93279
C    -1.57319  -2.71535  -0.03744
C    -2.13597  -3.44116  -1.07981
H    -3.12271  -3.19242  -1.43635
C    -1.40592  -4.45117  -1.68057
H    -1.83904  -5.00702  -2.49816
C    -0.12445  -4.74078  -1.24370
H     0.43996  -5.53171  -1.71407
C     0.43667  -4.01212  -0.20720
H     1.43258  -4.24471   0.13885
C    -0.27454  -2.98794   0.39833
H     0.15316  -2.44213   1.23886
C     2.49547  -1.66575  -1.58366
H     1.41970  -1.86311  -1.63830
H     2.93060  -2.27670  -0.79213
H     2.96229  -1.93782  -2.52760
C     2.70902  -0.22535  -1.28927
C     3.84843   0.57326  -1.46463
H     4.79020   0.26987  -1.87369
C     3.51086   1.82844  -1.00301
C     4.31182   3.07874  -0.97018
H     4.85962   3.16242  -0.03131
H     3.67020   3.95167  -1.07316
H     5.03612   3.06801  -1.78111
C     1.39515   2.76314  -0.05913
C     0.12894   2.95639  -0.61799
H    -0.19231   2.36616  -1.47320
C    -0.68237   3.96185  -0.11653
H    -1.65219   4.13099  -0.56006
C    -0.25123   4.75144   0.93797
H    -0.89143   5.52891   1.32677
C     0.99870   4.54203   1.49567
H     1.33054   5.14786   2.32506
C     1.82796   3.55073   1.00037
H     2.79123   3.36661   1.44872
N    -1.74608  -0.48392   0.79227
N    -2.30335  -1.68548   0.59149
N     1.74398   0.51444  -0.77080
N     2.22479   1.75091  -0.58723
Cl    0.99782   0.15195   2.06671
Pd    0.00000   0.00000   0.00000
O    -0.69773  -0.14149  -1.48851
