68

C     1.04047  -2.22907  -2.00080
H     0.79001  -1.30286  -2.53343
H     0.12383  -2.64588  -1.57346
H     1.47147  -2.94064  -2.69976
C     1.99764  -1.92134  -0.90391
C     3.26267  -2.45169  -0.61937
H     3.77847  -3.21803  -1.16042
C     3.70985  -1.78241   0.50122
C     4.99425  -1.90810   1.23703
H     4.83056  -2.20974   2.27200
H     5.53714  -0.96301   1.23720
H     5.60999  -2.66205   0.75511
C     2.75552   0.09716   1.89440
H     3.50394  -0.21143   2.63967
H     3.06493   1.05434   1.45224
C     0.87719  -0.72027   3.26204
C     1.51713  -1.89562   3.58982
H     2.49375  -2.13045   3.19710
C     0.89774  -2.82631   4.43165
H     1.42859  -3.73475   4.67744
C    -0.35106  -2.59977   4.93543
H    -0.82460  -3.32134   5.58402
C    -1.06499  -1.43967   4.57194
C    -0.44426  -0.48652   3.73210
C    -1.18793   0.63413   3.27529
C    -2.50178   0.78144   3.65622
H    -3.10145   1.59866   3.28899
C    -3.09534  -0.14591   4.52000
H    -4.12554   0.00175   4.81071
C    -2.39752  -1.22577   4.97975
H    -2.86522  -1.94943   5.63040
C    -1.24276   2.53407   1.70173
H    -0.50592   3.14806   1.16483
H    -1.83903   3.17320   2.36896
C    -4.12341   3.45196   1.03569
H    -5.09408   3.57127   0.56291
H    -4.28197   3.23976   2.09304
H    -3.57832   4.39213   0.95176
C    -3.38678   2.34943   0.36561
C    -3.76195   1.56204  -0.70346
H    -4.69078   1.59759  -1.23462
C    -2.67790   0.71027  -0.95364
C    -2.49046  -0.33907  -1.99109
H    -1.47574  -0.25991  -2.40378
H    -3.22077  -0.22854  -2.78830
H    -2.59870  -1.32516  -1.53420
C     0.90472   1.60207   2.58219
H     1.30255   2.20661   1.75378
C     1.22701   2.29190   3.90119
C     1.72911   1.62396   5.00931
H     1.93642   0.56633   4.96348
C     1.96734   2.30633   6.19082
H     2.35513   1.77108   7.04477
C     1.71020   3.66216   6.28068
H     1.89487   4.19093   7.20369
C     1.22049   4.33918   5.17631
H     1.02648   5.40006   5.23291
C     0.98407   3.65899   3.99663
H     0.61505   4.19657   3.13515
N     1.70832  -0.99393  -0.00542
N     2.73365  -0.91079   0.84737
N     1.45060   0.26473   2.45650
N    -0.53655   1.49758   2.39398
N    -2.14154   1.95433   0.71919
N    -1.71678   0.97371  -0.08376
Pd    0.00000   0.00000   0.00000
Cl    1.11063   1.88262  -0.77042
O    -0.78627  -1.33840   0.55944
