62

Ni    0.00000   0.00000   0.00000
Cl   -2.18183   0.54741   0.06197
N    -0.15688  -1.79565   1.04457
N    -0.44507  -1.06362  -1.36113
C    -1.02269  -2.24061  -1.09759
C    -0.35408  -0.58873  -2.61263
C     0.34170   0.68807  -2.67097
N     0.78889   1.09489  -1.53007
C    -0.89732  -1.30238  -3.67680
H    -0.84469  -0.91182  -4.68012
C    -0.04116  -2.08436   2.36470
C    -0.97489  -2.57164   0.31826
C     1.49719   2.28813  -1.35449
C    -1.73734  -3.59408   0.92125
H    -2.42209  -4.18930   0.33350
C    -0.82821  -3.12812   2.94192
C    -1.57362  -3.00269  -2.12239
H    -2.03766  -3.95188  -1.90999
C     0.88791   3.54096  -1.51829
C    -1.51286  -2.51761  -3.42046
H    -1.94348  -3.08684  -4.22987
N    -1.67831  -3.86055   2.19314
C     1.66852   4.67196  -1.32586
H     1.22332   5.64774  -1.44212
C    -0.59770   3.67451  -1.75354
H    -1.02540   2.69390  -1.97999
C     0.88157  -1.39786   3.17715
H     1.47819  -0.61772   2.72986
C     3.00178   4.57169  -0.97932
H     3.59401   5.46578  -0.85207
C     3.57098   3.33041  -0.75687
H     4.60144   3.26925  -0.44655
C     2.82754   2.17366  -0.91488
C     0.98216  -1.70347   4.50714
H     1.68531  -1.16779   5.12643
C     3.40313   0.80149  -0.65629
H     2.57170   0.15226  -0.32680
C     0.18261  -2.70468   5.08116
H     0.27591  -2.91813   6.13555
C     0.53924   1.39403  -3.97297
H     1.21480   2.23691  -3.84704
H    -0.41451   1.76016  -4.35093
H     0.95502   0.70645  -4.70844
C    -0.70333  -3.41108   4.31394
H    -1.32213  -4.19296   4.72485
C     4.44491   0.79783   0.45926
H     4.04990   1.30545   1.33545
H     5.36577   1.28577   0.14826
H     4.68554  -0.22775   0.73206
C    -0.92396   4.62174  -2.90953
H    -0.37932   4.34679  -3.81128
H    -0.66863   5.64764  -2.65723
H    -1.98969   4.58476  -3.12404
C     3.98709   0.21898  -1.94662
H     3.22910   0.15457  -2.72524
H     4.38054  -0.77931  -1.76656
H     4.79731   0.84921  -2.30892
C    -1.25229   4.15290  -0.45402
H    -2.33055   4.21120  -0.58052
H    -0.87510   5.13054  -0.16329
H    -1.04116   3.44845   0.34647
O     0.45084   1.05504   1.18581
