29

Zn    0.00000   0.00000   0.00000
Cl   -0.45177  -2.12011   0.44867
N    -1.52954   0.36491  -1.46924
N    -1.59142   1.06398   1.14043
C    -2.73688   0.38473  -0.91375
C    -3.89288   0.31728  -1.68339
C    -3.77811   0.22622  -3.05933
C    -2.51230   0.21647  -3.62708
C    -1.41451   0.28648  -2.78896
C    -2.79692   0.44970   0.58587
C    -1.48421   1.04115   2.56550
C    -1.54801  -0.15724   3.26647
C    -1.40220  -0.15651   4.64169
C    -1.19137   1.02861   5.32675
C    -1.11768   2.22060   4.62778
C    -1.26931   2.22929   3.25250
H    -4.86017   0.33037  -1.20563
H    -1.53877   2.03399   0.82970
H    -4.66022   0.16694  -3.67865
H    -2.37914   0.15288  -4.69467
H    -0.40449   0.28680  -3.17361
H    -2.85124  -0.58060   0.95271
H    -3.70464   0.98084   0.90412
H    -1.67340  -1.09008   2.73924
H    -1.44583  -1.09158   5.17901
H    -1.07539   1.02185   6.39966
H    -0.94357   3.14849   5.15125
H    -1.20070   3.16078   2.70699
O     1.29863   0.96849  -0.31317
