34

C    -1.16961   1.87508  -2.14372
C    -0.41895   2.99378  -1.77619
H    -0.63383   3.94050  -2.24284
C     0.58202   2.95587  -0.79715
C     1.31817   4.23267  -0.48451
H     2.20150   4.01203   0.10852
H     0.66171   4.88430   0.09034
H     1.60030   4.74984  -1.39745
C     1.92047  -0.42983   2.45832
H     2.92706  -0.57656   2.04663
H     1.65788  -1.29001   3.08686
H     1.91259   0.48051   3.07054
C    -1.65859  -2.67299  -0.26291
H    -1.35628  -3.40985   0.49231
H    -1.48110  -3.08711  -1.26348
H    -2.72880  -2.45900  -0.14795
C    -2.23754   2.00090  -3.16024
C    -3.34310   1.15684  -3.05563
H    -3.37911   0.45269  -2.23701
C    -4.37535   1.23928  -3.96992
H    -5.23282   0.58999  -3.87502
C    -4.30842   2.15344  -5.00926
H    -5.11280   2.21710  -5.72691
C    -3.20435   2.98230  -5.13150
H    -3.14631   3.68496  -5.94947
C    -2.17401   2.91274  -4.21217
H    -1.30737   3.54460  -4.32915
O    -1.00427   0.72113  -1.62089
O     0.90085   1.91881  -0.14542
O     1.02199  -0.30264   1.42232
O    -0.93424  -1.51136  -0.11060
Cl   -1.64456   1.22883   1.17832
Ta    0.00000   0.00000   0.00000
O     1.15774  -0.42093  -1.09770
