45

Pt    0.00000   0.00000   0.00000
N    -1.29103   0.01384   1.46348
C    -2.10161   1.05770   1.62385
H    -2.02075   1.85023   0.88844
C    -3.01656   1.15453   2.66773
C    -3.08209   0.09401   3.57147
H    -3.76659   0.13193   4.40531
C    -2.24015  -0.99019   3.39628
H    -2.26210  -1.82403   4.07993
C    -1.35523  -0.99574   2.33349
H    -0.68493  -1.82942   2.16193
C    -3.86604   2.34481   2.80482
C    -3.33819   3.61367   2.57456
H    -2.29628   3.71916   2.31169
C    -4.13454   4.73521   2.71327
H    -3.71435   5.71473   2.54036
C    -5.46573   4.60533   3.07379
H    -6.08680   5.48240   3.17820
C    -5.99854   3.34714   3.30018
H    -7.03704   3.24119   3.57718
C    -5.20402   2.22305   3.17175
H    -5.62801   1.24240   3.33166
Cl   -0.95420  -1.92695  -0.84372
N     1.29097  -0.01365  -1.46354
C     2.10153  -1.05752  -1.62390
H     2.02067  -1.85002  -0.88846
C     3.01645  -1.15440  -2.66779
C     3.08200  -0.09389  -3.57155
H     3.76648  -0.13185  -4.40540
C     2.24008   0.99032  -3.39637
H     2.26205   1.82415  -4.08004
C     1.35517   0.99592  -2.33358
H     0.68490   1.82962  -2.16203
C     3.86591  -2.34470  -2.80488
C     3.33807  -3.61356  -2.57463
H     2.29616  -3.71906  -2.31180
C     4.13444  -4.73509  -2.71330
H     3.71426  -5.71461  -2.54036
C     5.46563  -4.60520  -3.07381
H     6.08672  -5.48226  -3.17819
C     5.99842  -3.34701  -3.30026
H     7.03690  -3.24106  -3.57730
C     5.20389  -2.22293  -3.17182
H     5.62788  -1.24228  -3.33173
O     0.68160   1.37651   0.60262
