21

Pd    0.00000   0.00000   0.00000
Cl   -1.44413  -1.53197   0.66110
N     1.37234   1.29270  -0.69821
N     3.14776   1.43252  -2.25909
N     2.65195  -1.21964  -2.92310
N     0.89959  -1.20995  -1.33008
C     1.57890   2.56442  -0.34527
H     0.92010   2.95781   0.42265
C     2.57818   3.31557  -0.93703
H     2.74568   4.34046  -0.65203
C     3.35188   2.68730  -1.91235
H     4.15306   3.19630  -2.42942
C     2.17757   0.77180  -1.65324
C     1.91556  -0.62176  -2.00374
C     2.38257  -2.47729  -3.20970
H     3.00591  -2.93365  -3.96579
C     1.35486  -3.17248  -2.57293
H     1.13333  -4.19996  -2.80744
C     0.62510  -2.48475  -1.62025
H    -0.19402  -2.93292  -1.06643
O    -0.65905   1.08131   1.05779
