48

Mn    0.00000   0.00000   0.00000
O     0.62698   0.06154  -1.76729
O     1.56658   3.86643  -0.27359
O     0.04112  -0.21504   1.84330
O    -1.04356  -3.96966   0.29706
O     2.16923  -0.94759   0.20986
N     0.74507   1.84398   0.21390
N    -0.62501  -1.82621  -0.18537
C     1.10150   0.99260  -2.54096
C     1.44749   2.29059  -2.07192
C     1.98116   3.23556  -2.95401
C     2.17950   2.92903  -4.28001
C     1.84410   1.66167  -4.75185
C     1.32359   0.71287  -3.90545
C     1.23271   2.62820  -0.68966
C     0.64443   2.58755   1.46006
C     1.20016   3.97664   1.09797
C     0.04708  -1.27948   2.57977
C    -0.27763  -2.57992   2.09489
C    -0.26694  -3.67667   2.96447
C     0.07090  -3.52464   4.28777
C     0.39831  -2.25929   4.77554
C     0.38587  -1.16501   3.94783
C    -0.63547  -2.75242   0.71656
C    -1.13541  -2.38273  -1.42668
C    -1.38040  -3.86304  -1.08231
C     3.21759  -0.45778   1.02199
H     2.22867   4.21247  -2.56806
H     2.58706   3.66672  -4.95356
H     1.99287   1.42121  -5.79445
H     1.05283  -0.26793  -4.26854
H     1.22372   2.08452   2.23774
H    -0.40257   2.61652   1.77289
H     0.45356   4.76935   1.19335
H     2.09078   4.24717   1.67245
H    -0.52916  -4.64541   2.56729
H     0.07985  -4.37731   4.94894
H     0.66075  -2.13865   5.81664
H     0.62450  -0.18026   4.32341
H    -0.39863  -2.23999  -2.22132
H    -2.05305  -1.85585  -1.70729
H    -2.42424  -4.16168  -1.20739
H    -0.73974  -4.54603  -1.64862
H     2.51164  -1.13011  -0.67548
H     3.63427   0.47385   0.62552
H     4.01375  -1.20337   1.11117
H     2.79212  -0.27406   2.00714
O    -1.52494   0.60140  -0.18810
