47

Hg    0.00000   0.00000   0.00000
O    -1.14719  -1.19511   2.28818
O     1.16384   0.38868   2.54540
N    -0.93127  -2.60759  -0.18677
N     2.32135   1.51340   0.00549
C     1.65190  -1.29229  -0.56797
C     2.88245  -0.72894  -0.91571
C     3.96889  -1.54268  -1.21273
C     3.84119  -2.91891  -1.18228
C     2.63326  -3.48481  -0.82421
C     1.54440  -2.68097  -0.50206
C     0.29405  -3.37207   0.01160
C    -1.97653  -2.89590   0.78672
C    -1.60872  -2.52334   2.22386
C    -0.58919  -0.86629   3.53856
C     0.09193   0.49349   3.45780
C     1.96298   1.55126   2.46028
C     2.95372   1.36248   1.31233
C     3.05379   0.77225  -1.02067
C    -1.42917  -2.81821  -1.53754
C     2.20683   2.91730  -0.35991
H     4.91799  -1.09518  -1.47567
H     4.68447  -3.54809  -1.42715
H     2.53357  -4.56140  -0.78353
H     0.20951  -4.37012  -0.44967
H     0.44739  -3.52047   1.08327
H    -2.26094  -3.96326   0.77744
H    -2.84949  -2.30488   0.49817
H    -2.50395  -2.64159   2.85518
H    -0.83635  -3.20148   2.61902
H     0.16164  -1.62067   3.81954
H    -1.37380  -0.84045   4.30966
H    -0.62716   1.25390   3.12705
H     0.46770   0.76596   4.45520
H     2.51013   1.68901   3.40581
H     1.33061   2.43305   2.29454
H     3.78798   2.07209   1.43250
H     3.34097   0.34378   1.38852
H     4.12711   1.02456  -0.99672
H     2.66300   1.08967  -1.99429
H    -2.27307  -2.15707  -1.73140
H    -1.75443  -3.85801  -1.69397
H    -0.63514  -2.59166  -2.24769
H     1.63899   3.45250   0.39788
H     1.67105   3.00553  -1.30372
H     3.19283   3.39465  -0.46401
O    -1.00751   1.28486   0.23784
