48

Ag    0.00000   0.00000   0.00000
Br    1.52340  -6.87068  -5.18926
N     2.10121  -2.37290   0.03933
C     1.22726  -4.22921  -1.29899
C     0.69814  -3.74838  -2.50935
C     0.78458  -4.54921  -3.69744
C     3.39782   3.17329  -0.65816
H     2.69107   3.55201   0.08294
H     4.40731   3.34913  -0.27824
C     1.86802  -1.06485   0.27224
C     1.99132  -6.27105  -2.43536
N     3.08867  -0.49271   0.30959
C     2.50290  -5.97606  -0.07100
H     2.47182  -5.40198   0.84169
C     1.08297  -3.39760  -0.04565
H     0.10763  -2.90203  -0.01931
H     1.13691  -4.02980   0.84415
C     2.66170  -7.51842  -2.36631
H     2.72716  -8.12337  -3.25696
C     3.14527  -7.17589  -0.04844
H     3.59934  -7.52926   0.86527
C     3.22409  -7.96309  -1.21079
H     3.73169  -8.91466  -1.17999
C     1.89399  -5.46559  -1.25117
C     0.06313  -2.48339  -2.62719
H    -0.01109  -1.82759  -1.76477
C     4.06611  -1.42363   0.09778
H     5.10728  -1.17479   0.08575
C     3.17807   1.67490  -0.83952
H     2.16860   1.50238  -1.23313
H     3.89239   1.27962  -1.56591
C     1.42070  -5.78987  -3.61599
C     3.44363  -2.61433  -0.06896
H     3.84379  -3.58852  -0.25852
C     3.32124   0.91736   0.48276
H     4.32499   1.05875   0.89218
H     2.59091   1.30327   1.20120
C    -0.46266  -2.04185  -3.80250
H    -0.94356  -1.07684  -3.84600
C     3.20546   3.92661  -1.96799
H     3.90481   3.57126  -2.72175
H     3.36940   4.99096  -1.82149
H     2.19455   3.78347  -2.34186
C     0.22308  -4.05542  -4.90187
H     0.28449  -4.66247  -5.79170
C    -0.38640  -2.84049  -4.95760
H    -0.81043  -2.48430  -5.88352
O    -1.36690   0.74607  -0.54541
