50

Ir    0.00000   0.00000   0.00000
P     0.85992   1.43435  -1.60158
H     1.55456   0.79806  -2.64445
C     1.38450  -1.53043  -0.45600
H     2.25066  -1.16487  -1.00759
C     0.20941  -1.74395  -1.19918
H     0.25598  -1.49143  -2.25788
C    -0.78323  -2.84218  -0.87554
H    -0.25084  -3.68617  -0.43459
H    -1.23805  -3.19849  -1.80166
C    -1.89948  -2.35762   0.06829
H    -2.27707  -3.19334   0.66707
H    -2.73403  -1.98762  -0.53052
C    -1.45971  -1.24466   0.98864
H    -2.27411  -0.60290   1.31740
C    -0.30175  -1.25696   1.74914
H    -0.26396  -0.59884   2.61404
C     0.64320  -2.43662   1.80492
H     1.08213  -2.49363   2.80258
H     0.07414  -3.35428   1.64991
C     1.77618  -2.32659   0.76818
H     2.63258  -1.82969   1.22898
H     2.10912  -3.32553   0.46540
C     2.27452   2.57962  -1.12077
C     1.84485   3.58411  -0.05535
H     1.26354   3.09153   0.72082
H     1.23866   4.38075  -0.47606
H     2.72335   4.03515   0.40439
C     3.30065   1.62076  -0.50618
H     2.85667   1.08976   0.33604
H     4.16717   2.17308  -0.14613
H     3.64178   0.89126  -1.24042
C     2.89893   3.29555  -2.31537
H     3.13705   2.59422  -3.11396
H     3.82335   3.78132  -2.00396
H     2.23773   4.06531  -2.70515
C    -0.43427   2.26705  -2.68986
C    -1.59747   1.26915  -2.70649
H    -1.96137   1.10367  -1.69263
H    -1.28073   0.31407  -3.12381
H    -2.41900   1.65215  -3.30997
C     0.05760   2.47727  -4.12111
H     0.87469   3.19056  -4.17100
H    -0.75974   2.86141  -4.73071
H     0.39155   1.53727  -4.55814
C    -0.91095   3.57927  -2.07513
H    -1.11631   3.44261  -1.01492
H    -1.82830   3.90677  -2.56283
H    -0.16891   4.36503  -2.19638
O    -0.66618   1.30917   0.75152
