47

C     0.04091   2.61373  -1.27310
H    -0.04460   2.91301  -0.23649
C     0.07650   0.88330  -2.79106
H     0.04891  -0.18547  -2.95562
C     0.17291   1.77115  -3.84852
H     0.22265   1.39106  -4.85619
C     0.21965   3.12973  -3.59409
H     0.32630   3.83749  -4.40222
C     0.15042   3.57619  -2.27450
C     0.20287   5.00019  -1.92376
C     0.89990   5.41894  -0.79131
H     1.41666   4.69382  -0.18114
C     0.95598   6.76116  -0.46547
H     1.50253   7.07600   0.41065
C     0.31411   7.69935  -1.25718
H     0.35613   8.74646  -0.99751
C    -0.38377   7.29059  -2.38159
H    -0.88973   8.01826  -2.99850
C    -0.43681   5.95050  -2.71693
H    -1.00073   5.63526  -3.58248
N     0.01869   1.31014  -1.53014
Pt    0.00000   0.00000   0.00000
Cl   -1.70531  -1.24425  -1.08181
Cl    1.71691  -1.26111  -1.05995
C     0.04091  -2.61373   1.27310
H    -0.04460  -2.91300   0.23649
C     0.07650  -0.88330   2.79106
H     0.04891   0.18547   2.95562
C     0.17291  -1.77115   3.84852
H     0.22265  -1.39106   4.85619
C     0.21965  -3.12973   3.59409
H     0.32630  -3.83749   4.40222
C     0.15042  -3.57619   2.27451
C     0.20287  -5.00019   1.92376
C     0.89990  -5.41893   0.79131
H     1.41666  -4.69382   0.18114
C     0.95598  -6.76116   0.46547
H     1.50253  -7.07600  -0.41065
C     0.31411  -7.69935   1.25718
H     0.35613  -8.74646   0.99751
C    -0.38377  -7.29059   2.38159
H    -0.88973  -8.01826   2.99850
C    -0.43681  -5.95050   2.71693
H    -1.00073  -5.63526   3.58248
N     0.01869  -1.31014   1.53015
Cl   -1.70531   1.24425   1.08182
O     1.19058   0.87451   0.73502
