55

Pd    0.00000   0.00000   0.00000
S    -0.54012  -1.86487  -1.30012
P    -1.03302   1.50212  -1.24513
C     0.08524   2.69455  -2.02638
C    -0.37575   3.65982  -2.91767
H    -1.42855   3.70716  -3.16311
C     0.52055   4.53950  -3.49604
H     0.16675   5.29495  -4.18282
C     1.87235   4.44978  -3.20030
H     2.56719   5.14138  -3.65426
C     2.33462   3.47073  -2.33591
H     3.39002   3.39531  -2.11995
C     1.44428   2.58856  -1.74908
H     1.78840   1.80852  -1.07222
C    -2.18866   2.38503  -0.15943
C    -2.83417   1.57300   0.77336
H    -2.60305   0.50289   0.78718
C    -3.72764   2.12361   1.67036
H    -4.22713   1.49765   2.39538
C    -3.97027   3.48949   1.64860
H    -4.66030   3.92457   2.35664
C    -3.31712   4.29867   0.73497
H    -3.49598   5.36411   0.73363
C    -2.42495   3.75165  -0.17300
H    -1.90029   4.38679  -0.87181
C    -2.05447   0.96646  -2.64960
C    -3.43312   1.12401  -2.70125
H    -3.95411   1.60243  -1.88327
C    -4.13454   0.66479  -3.80304
H    -5.20727   0.78703  -3.84439
C    -3.46706   0.04634  -4.84642
H    -4.02036  -0.31452  -5.70111
C    -2.09112  -0.11773  -4.79293
H    -1.57341  -0.60798  -5.60409
C    -1.38588   0.33916  -3.69758
H    -0.31340   0.20670  -3.62735
C     2.43421  -1.83745  -0.48254
C     1.47062  -2.45814   0.52650
H     2.01273  -3.22329   1.10889
C     0.33298  -3.10740  -0.27046
H    -0.38782  -3.56631   0.41267
H     0.72628  -3.87358  -0.93974
C     4.08753  -2.30760  -2.08238
H     4.96673  -1.83931  -1.62659
H     3.55987  -1.55401  -2.67615
C     4.47615  -3.50985  -2.92126
H     5.15695  -3.19837  -3.70794
H     3.59266  -3.95396  -3.37196
H     4.96526  -4.25741  -2.30251
O     2.45611  -0.66227  -0.75751
O     3.21786  -2.75059  -1.03032
N     0.90938  -1.39787   1.35470
H     1.62394  -0.87629   1.87016
H     0.22381  -1.76466   2.01846
O     0.37915   1.20740   1.05875
