57

Fe    0.00000   0.00000   0.00000
Si   -0.41617   0.54877  -2.85138
N    -0.00354   1.21726  -1.30022
N     2.27997  -1.25229   0.23824
N     1.39185   1.21921   1.80438
C    -0.04451   2.58547  -1.04801
C    -1.16459   3.12621  -0.38823
C    -1.21852   4.48497  -0.13197
H    -2.08336   4.89444   0.37131
C    -0.18550   5.32535  -0.51255
H    -0.24190   6.38431  -0.30911
C     0.92059   4.79430  -1.14729
H     1.73717   5.44042  -1.43825
C     1.00710   3.43597  -1.41667
C     2.22892   2.88381  -2.08589
H     3.11171   3.45412  -1.80262
H     2.12681   2.93509  -3.16910
H     2.35942   1.84097  -1.80685
C    -2.29477   2.22832   0.02229
H    -2.99426   2.75797   0.66360
H    -1.91759   1.35131   0.55919
H    -2.82826   1.87371  -0.85947
C     1.01026   0.37899  -4.12188
H     1.93425   0.03262  -3.67221
H     1.21511   1.31988  -4.62155
H     0.73213  -0.33830  -4.88789
C    -1.79007   1.56418  -3.71252
H    -2.77234   1.35261  -3.30237
H    -1.82719   1.35237  -4.77614
H    -1.60682   2.62797  -3.59286
C    -1.00064  -1.20965  -2.39505
H    -1.90740  -1.18471  -1.79708
H    -0.23835  -1.72693  -1.81481
H    -1.20330  -1.80753  -3.27553
C     2.92536  -1.29539  -1.06689
H     3.90884  -1.78789  -1.02545
H     3.05323  -0.28293  -1.44470
H     2.29256  -1.84373  -1.76211
C     2.06732  -2.61520   0.71034
H     3.01556  -3.16788   0.79211
H     1.41274  -3.13930   0.01697
H     1.58063  -2.60045   1.68148
C     3.09074  -0.49657   1.19585
H     3.85039  -1.14544   1.66044
H     3.61598   0.29140   0.65466
C     2.24189   0.13755   2.29994
H     1.58934  -0.62633   2.72533
H     2.91445   0.50090   3.09696
C     2.17556   2.41442   1.53488
H     2.71905   2.75262   2.43107
H     1.51201   3.21003   1.20710
H     2.89323   2.23028   0.74111
C     0.37142   1.55043   2.79349
H     0.81590   1.88864   3.74114
H    -0.25040   0.67884   2.98363
H    -0.25350   2.34703   2.39631
O    -0.67840  -1.03571   1.09068
