57

Pd    0.00000   0.00000   0.00000
P     0.71585  -0.39509   2.10123
C     0.58075   0.87515   3.41146
H     0.97452   0.49916   4.35510
H    -0.46611   1.15635   3.51385
H     1.15084   1.75241   3.10353
C    -0.25737  -1.79897   2.72120
C    -0.25389  -2.21905   4.04784
H     0.35456  -1.70606   4.77934
C    -1.03383  -3.29426   4.43401
H    -1.02738  -3.61963   5.46427
C    -1.82400  -3.95227   3.50526
H    -2.43184  -4.79017   3.81321
C    -1.83885  -3.53416   2.18441
H    -2.45935  -4.04578   1.46332
C    -1.05918  -2.46109   1.79245
H    -1.06401  -2.12481   0.74532
C     2.46729  -0.86219   2.22457
C     2.95171  -1.98263   2.88198
H     2.26943  -2.66276   3.37190
C     4.31327  -2.23557   2.88747
H     4.69268  -3.11140   3.39370
C     5.18609  -1.37923   2.23854
H     6.24604  -1.58687   2.24170
C     4.70193  -0.26609   1.56812
H     5.38221   0.39038   1.04571
C     3.34524  -0.01227   1.55673
H     2.94034   0.83483   1.00562
P    -0.71638   0.39468  -2.10100
C    -0.58142  -0.87540  -3.41138
H    -0.97517  -0.49917  -4.35494
H     0.46543  -1.15662  -3.51382
H    -1.15159  -1.75267  -3.10362
C     0.25692   1.79852  -2.72088
C     0.25358   2.21843  -4.04757
H    -0.35476   1.70530  -4.77906
C     1.03365   3.29352  -4.43383
H     1.02725   3.61876  -5.46413
C     1.82376   3.95160  -3.50509
H     2.43163   4.78947  -3.81310
C     1.83851   3.53364  -2.18419
H     2.45894   4.04534  -1.46311
C     1.05873   2.46066  -1.79214
H     1.06347   2.12446  -0.74498
C    -2.46778   0.86202  -2.22421
C    -2.95209   1.98266  -2.88137
H    -2.26976   2.66278  -3.37123
C    -4.31363   2.23577  -2.88677
H    -4.69293   3.11178  -3.39277
C    -5.18655   1.37939  -2.23802
H    -6.24647   1.58719  -2.24108
C    -4.70250   0.26603  -1.56787
H    -5.38285  -0.39049  -1.04560
C    -3.34584   0.01206  -1.55654
H    -2.94102  -0.83518  -1.00558
Cl    1.54321  -1.44143  -0.88339
O    -1.11254   1.03882   0.63688
