47

Mn    0.00000   0.00000   0.00000
O    -3.48769   0.93875  -1.59665
O    -1.33698  -1.86368   0.35959
H    -2.21364  -1.76859  -0.03551
H    -1.47089  -2.01891   1.30357
O     0.22503  -0.11853   3.98698
N    -1.60119   0.91389  -0.24226
N    -0.21041  -0.38615  -1.92767
N     1.44059  -1.13601   0.80829
N    -0.30727   0.44590   1.79845
C    -2.09703   1.59561   0.85598
C    -1.34432   1.33185   2.03236
C    -1.71815   1.91393   3.23928
H    -1.14263   1.71436   4.12847
C    -2.81761   2.75275   3.26793
H    -3.10275   3.21817   4.19972
C    -3.55367   3.00786   2.11812
H    -4.40600   3.66933   2.16333
C    -3.20681   2.43106   0.90957
H    -3.77228   2.62708   0.01297
C    -2.31285   0.67721  -1.36860
C    -1.43559  -0.01710  -2.36443
C    -1.86206  -0.20178  -3.66914
H    -2.86296   0.11404  -3.92268
C    -1.00568  -0.75763  -4.60992
C     0.27516  -1.08325  -4.16608
H     1.00525  -1.48490  -4.85190
C     0.62157  -0.88495  -2.84449
H     1.62358  -1.11527  -2.50833
C     0.38928  -0.17577   2.77431
C     1.43753  -1.04946   2.15557
C     2.34464  -1.72226   2.95894
H     2.26148  -1.59249   4.02759
C     3.32714  -2.51737   2.38697
C     3.32636  -2.59901   0.99504
H     4.06667  -3.19309   0.48147
C     2.38229  -1.90728   0.26291
H     2.38632  -1.97246  -0.81633
C    -1.42497  -0.95094  -6.02870
H    -1.36933  -0.00038  -6.55938
H    -2.45410  -1.29900  -6.08062
H    -0.77763  -1.66262  -6.53468
C     4.31910  -3.25690   3.22053
H     5.21129  -3.49425   2.64674
H     3.88020  -4.19152   3.57119
H     4.59685  -2.67199   4.09381
O     1.12463   1.14967  -0.36872
