54

Mn    0.00000   0.00000   0.00000
O     1.53259  -0.86255   0.10288
O    -0.68513  -0.10873   1.60800
O     6.48396   0.04381  -2.05577
O    -5.62386  -0.39088   3.94008
O     1.09410   1.79895   1.06281
H     1.60439   1.40276   1.78065
N     0.52843   0.80909  -1.69594
N    -1.70741   1.07190  -0.47865
C     2.69906  -0.65128  -0.38594
C     3.84388  -1.28656   0.14827
H     3.70195  -1.94950   0.98885
C     5.09286  -1.07777  -0.37146
H     5.93498  -1.58269   0.07483
C     5.27390  -0.22251  -1.47608
C     4.18087   0.40627  -2.02587
H     4.32938   1.04879  -2.88015
C     2.88192   0.22814  -1.50826
C     1.78903   0.89887  -2.08638
H     2.02642   1.56434  -2.91317
C    -1.86432  -0.17797   2.12279
C    -2.07069  -0.74071   3.40343
H    -1.21429  -1.14260   3.92373
C    -3.31788  -0.79696   3.95583
H    -3.47841  -1.23645   4.92770
C    -4.44096  -0.28531   3.27091
C    -4.27491   0.26815   2.02460
H    -5.10952   0.67257   1.47313
C    -3.00033   0.33363   1.42194
C    -2.85352   0.88359   0.13067
H    -3.77446   1.14756  -0.38634
C    -1.66452   1.67355  -1.72205
C    -2.66983   2.44740  -2.30582
H    -3.56901   2.68089  -1.75692
C    -2.51613   2.92918  -3.58975
H    -3.30221   3.51786  -4.03759
C    -1.36556   2.64478  -4.31386
H    -1.26969   2.99233  -5.33107
C    -0.33747   1.92575  -3.73778
H     0.54175   1.70044  -4.32120
C    -0.45131   1.47035  -2.42360
C     7.62520  -0.61688  -1.56764
H     8.44892  -0.27892  -2.19471
H     7.53112  -1.70423  -1.65280
H     7.83440  -0.34922  -0.52624
C    -6.79339   0.05652   3.29979
H    -7.60638  -0.14546   3.99528
H    -6.97143  -0.48605   2.36597
H    -6.75260   1.13141   3.09402
C     1.80957   2.90890   0.55479
H     1.97713   3.64797   1.34423
H     1.19333   3.35408  -0.22429
H     2.77025   2.60874   0.12516
O    -0.72942  -1.30426  -0.69953
