63

Pt    0.00000   0.00000   0.00000
Cl   -1.79243  -0.71162  -1.29109
P     1.77786   0.40328   1.38374
P     0.19088   1.44358  -1.76252
O     2.82381   1.59967   1.05569
O     1.38973   2.53140  -1.81485
C     4.01619   3.57763  -0.83962
H     3.95961   2.53385  -1.14870
H     4.96631   3.99071  -1.18007
C     2.63582   3.00176   1.17647
H     2.51540   3.23870   2.24250
C    -1.40911   2.36498  -2.07080
H    -2.09416   1.56857  -2.37589
C    -1.93965   2.93071  -0.75475
H    -1.88802   2.15829   0.01881
H    -2.98254   3.22284  -0.86513
H    -1.37586   3.80187  -0.42622
C     1.39807   3.53911   0.45535
H     1.16293   4.51388   0.88847
H     0.56561   2.85635   0.65395
C     1.32802   0.56668   3.18581
H     0.98518  -0.43675   3.45234
C     3.92585   3.65711   0.67840
H     3.93999   4.70059   0.99930
H     4.77058   3.14244   1.13751
C     0.53142   0.60448  -3.39115
H    -0.46189   0.41810  -3.81392
C     1.51963   3.72710  -1.05938
H     0.71479   4.41044  -1.36293
C     0.13678   1.50955   3.33456
H    -0.64837   1.21279   2.63509
H     0.41162   2.54495   3.13867
H    -0.26939   1.44939   4.34261
C     3.20356  -1.29696  -0.16465
H     3.40057  -0.41106  -0.76678
H     2.26711  -1.75060  -0.49349
H     4.00861  -2.01335  -0.31969
C    -1.35353   3.40922  -3.17950
H    -1.20494   2.93770  -4.14746
H    -0.55872   4.13556  -3.02301
H    -2.29992   3.94781  -3.21337
C     3.08398  -0.91346   1.30641
H     4.01456  -0.43329   1.63207
C     2.85901   4.34966  -1.45914
H     2.93148   4.33641  -2.54734
H     2.88127   5.38835  -1.12346
C     1.20674  -0.74124  -3.14566
H     0.65408  -1.31036  -2.39725
H     2.22763  -0.59607  -2.80111
H     1.23235  -1.32482  -4.06428
C     2.50215   0.95433   4.07631
H     3.36145   0.31362   3.89386
H     2.21679   0.85249   5.12240
H     2.80787   1.98553   3.91300
C     2.79463  -2.13851   2.16109
H     2.84339  -1.91144   3.22304
H     3.52915  -2.91332   1.94605
H     1.80493  -2.52908   1.93752
C     1.36312   1.44058  -4.35698
H     0.92222   2.41625  -4.53752
H     1.44383   0.91698  -5.30826
H     2.36412   1.58815  -3.95975
O    -0.35785  -1.14932   1.12850
