35

Ir    0.00000   0.00000   0.00000
P    -1.17560   1.52890  -1.29293
C    -1.46395  -0.28235   1.49151
H    -2.44698   0.07318   1.18308
C     1.66678  -0.79460   1.09928
H     2.54457  -0.73733   0.45929
C     1.82638  -0.07555   2.41853
H     2.47263   0.78854   2.25397
H     2.33924  -0.73276   3.12871
C     0.48737   0.40533   3.01023
H     0.08820  -0.33695   3.70277
H     0.66462   1.31690   3.58388
C    -0.54383   0.68708   1.93454
H    -0.87330   1.72406   1.90493
C     0.76676  -1.82599   0.87085
H     0.97660  -2.49932   0.04334
C    -1.50048  -1.70811   1.99747
H    -2.19947  -2.26560   1.37077
H    -1.89768  -1.72618   3.01836
C    -0.14217   2.87800  -1.97623
H    -0.73000   3.51606  -2.63552
H     0.68237   2.43305  -2.52826
H     0.26290   3.47149  -1.15863
C    -2.58743   2.51183  -0.62713
H    -2.96350   3.19681  -1.38517
H    -2.26345   3.08375   0.23902
H    -3.39066   1.84540  -0.32193
C    -1.94463   0.86157  -2.81592
H    -2.39321   1.66309  -3.40192
H    -2.70823   0.13400  -2.54666
H    -1.17477   0.36131  -3.39870
C    -0.12500  -2.39996   1.95035
H     0.37974  -2.30827   2.91294
H    -0.27150  -3.46481   1.76207
O     0.81364  -0.20115  -1.42128
