43

C     2.04784  -1.06722   2.26753
H     1.51523  -1.99909   2.11303
C     3.33397  -0.92509   1.76708
H     3.77245  -1.72126   1.18219
C     4.05409   0.23054   2.01721
H     5.04712   0.35068   1.61279
C     3.49336   1.23320   2.79004
H     4.05321   2.13348   2.99562
C     2.21436   1.08868   3.29792
H     1.79884   1.87178   3.91802
C     1.46814  -0.05700   3.03322
C     0.06945  -0.22299   3.57415
H    -0.39038  -1.10184   3.11564
H     0.11223  -0.39966   4.65248
C    -0.82507   1.00002   3.32494
H    -1.86925   0.70162   3.45219
H    -0.60592   1.78289   4.06490
C    -5.65536  -0.38650  -3.44284
H    -5.96845   0.17926  -2.57633
C    -6.50655  -1.32815  -3.99240
H    -7.47860  -1.49558  -3.55232
C    -6.11313  -2.05409  -5.10339
H    -6.77688  -2.78927  -5.53316
C    -4.86541  -1.83390  -5.66080
H    -4.55248  -2.39783  -6.52706
C    -4.01561  -0.89170  -5.10952
H    -3.04302  -0.72260  -5.54977
C    -4.40336  -0.15603  -3.99765
C    -3.46619   0.83898  -3.37396
H    -4.03811   1.65218  -2.91696
H    -2.81063   1.26630  -4.13777
C    -2.61012   0.15776  -2.29600
H    -3.26352  -0.29442  -1.54392
H    -2.01667  -0.63969  -2.75452
Cd    0.00000   0.00000   0.00000
I    -1.09164  -2.44502   0.12634
N    -0.65614   1.51658   1.95725
H     0.22299   2.03832   1.92703
H    -1.39465   2.19400   1.77014
N    -1.69606   1.08261  -1.61712
H    -2.24574   1.84556  -1.21998
H    -1.08860   1.51130  -2.31883
O     1.19615   0.98797  -0.56182
