58

Re    0.00000   0.00000   0.00000
O     0.55373  -0.48222   1.48589
Br   -2.09952   1.10061   0.74414
P     1.88052  -0.94719  -1.28757
C     3.19284  -1.62099  -0.23343
C     3.93785  -2.73065  -0.62474
H     3.71668  -3.22872  -1.55914
C     4.96072  -3.18962   0.18484
H     5.53611  -4.05237  -0.11707
C     5.24919  -2.54325   1.37662
H     6.04943  -2.90611   2.00408
C     4.51370  -1.43431   1.76305
H     4.73905  -0.92979   2.68991
C     3.48555  -0.97086   0.96181
H     2.89978  -0.11213   1.26513
C     1.25514  -2.35206  -2.24579
C     0.93116  -3.52151  -1.55737
H     1.17208  -3.60169  -0.50467
C     0.30195  -4.56009  -2.21499
H     0.05180  -5.46365  -1.67865
C    -0.01886  -4.43579  -3.55863
H    -0.52339  -5.24246  -4.06850
C     0.30613  -3.27855  -4.24579
H     0.05684  -3.18287  -5.29197
C     0.94106  -2.23443  -3.59526
H     1.18196  -1.32595  -4.12895
C     2.72785   0.14882  -2.45505
C     1.97447   0.98375  -3.27845
H     0.89460   0.98649  -3.23161
C     2.61250   1.82935  -4.16633
H     2.02128   2.47257  -4.79922
C     3.99565   1.85698  -4.23120
H     4.49166   2.52472  -4.91958
C     4.74498   1.03640  -3.40401
H     5.82375   1.06355  -3.44565
C     4.11864   0.18468  -2.51291
H     4.70837  -0.44442  -1.86197
O    -0.74588  -0.03261  -1.84574
O    -0.96156   0.69011  -4.52610
O    -2.82467  -0.04167  -5.50597
H    -2.59127   0.64226  -6.15253
N    -1.17447  -1.84120  -0.10199
C    -1.35637  -2.72027   0.85695
H    -0.80435  -2.55216   1.77176
C    -2.22471  -3.80521   0.69774
H    -2.34780  -4.49914   1.51370
C    -2.90719  -3.96788  -0.48235
H    -3.58471  -4.79617  -0.62567
C    -2.72958  -3.03222  -1.52145
C    -3.36913  -3.06379  -2.77720
H    -4.06497  -3.85975  -2.99033
C    -3.11151  -2.09216  -3.70358
H    -3.60339  -2.11667  -4.66352
C    -2.20901  -1.03784  -3.46910
C    -1.56441  -0.94921  -2.22863
C    -1.83926  -1.97098  -1.26000
C    -1.91932  -0.04459  -4.51180
O     0.74409   1.46888  -0.10585
