67

Pd    0.00000   0.00000   0.00000
P    -1.23567   1.67963  -0.90323
C    -0.44447   2.59238  -2.26496
C     0.01828   1.89567  -3.39279
C    -0.19476   0.40934  -3.50259
H    -1.22540   0.22719  -3.82508
H    -0.08752  -0.03957  -2.49298
C     0.74809  -0.31620  -4.45743
H     0.55195  -0.04274  -5.49186
H     0.60194  -1.39003  -4.36501
H     1.78494  -0.08573  -4.22276
C     0.64976   2.61327  -4.39968
H     1.01291   2.10165  -5.27689
C     0.82959   3.98205  -4.30439
H     1.32559   4.51498  -5.10234
C     0.38012   4.66178  -3.18789
H     0.52347   5.72868  -3.10195
C    -0.25118   3.96627  -2.17352
H    -0.58606   4.50331  -1.30034
C    -2.92025   1.28780  -1.55425
H    -2.83584   0.39377  -2.17637
H    -3.52739   1.00432  -0.69040
C    -3.56530   2.42773  -2.32979
H    -3.68501   3.31194  -1.70714
H    -4.55045   2.12759  -2.68199
H    -2.96003   2.70067  -3.19256
C    -1.57201   2.90720   0.42511
H    -0.60068   3.31958   0.71705
H    -2.21913   3.71547   0.07424
C    -2.20025   2.17855   1.61206
H    -3.24751   1.94791   1.42546
H    -2.14065   2.78449   2.51406
H    -1.66893   1.23147   1.78736
Cl   -1.66328  -1.55504  -0.14712
P     1.23601  -1.67938   0.90323
C     0.44424  -2.59190   2.26475
C    -0.01836  -1.89517   3.39264
C     0.19470  -0.40884   3.50246
H     1.22535  -0.22665   3.82489
H     0.08739   0.04011   2.49287
C    -0.74816   0.31670   4.45727
H    -0.55202   0.04324   5.49169
H    -0.60202   1.39055   4.36487
H    -1.78499   0.08620   4.22260
C    -0.64969  -2.61279   4.39960
H    -1.01288  -2.10116   5.27679
C    -0.82947  -3.98158   4.30434
H    -1.32555  -4.51448   5.10224
C    -0.38004  -4.66131   3.18783
H    -0.52345  -5.72819   3.10184
C     0.25102  -3.96577   2.17335
H     0.58600  -4.50282   1.30021
C     2.92044  -1.28698   1.55419
H     2.83596  -0.39291   2.17625
H     3.52746  -1.00368   0.69019
C     3.56521  -2.42709   2.32966
H     3.68487  -3.31141   1.70712
H     4.55037  -2.12686   2.68173
H     2.95998  -2.69986   3.19256
C     1.57188  -2.90669  -0.42543
H     0.60053  -3.31908  -0.71733
H     2.21898  -3.71490  -0.07446
C     2.20018  -2.17803  -1.61232
H     3.24745  -1.94742  -1.42575
H     2.14053  -2.78397  -2.51431
H     1.66890  -1.23093  -1.78759
O     1.20208   1.12529   0.10592
