48

Re    0.00000   0.00000   0.00000
O     1.22303  -0.09586   2.83795
O     2.72711   0.37883  -1.39391
O     0.03594  -3.09708   0.03836
N    -1.19730   0.38734  -1.82838
N    -0.36104   2.11143   0.01446
C    -1.63975  -0.53979  -2.68403
C    -2.71609  -0.31141  -3.53248
H    -3.04739  -1.10658  -4.18149
C    -3.36859   0.91617  -3.51694
C    -2.87080   1.88589  -2.65156
H    -3.34164   2.85370  -2.61709
C    -1.79029   1.59770  -1.82846
C    -1.24904   2.58161  -0.88104
C    -1.61664   3.92682  -0.89721
H    -2.30696   4.29551  -1.63743
C    -1.08703   4.79265   0.03860
H    -1.36938   5.83401   0.04294
C    -0.18732   4.29285   0.96895
H     0.24926   4.92552   1.72425
C     0.14811   2.95477   0.91124
H     0.85582   2.53793   1.61640
C    -0.96895  -1.85200  -2.73835
C    -1.71307  -3.01745  -2.58001
H    -2.77101  -2.95176  -2.37096
C    -1.08876  -4.24910  -2.64273
H    -1.66598  -5.14942  -2.49589
C     0.27227  -4.32849  -2.88823
H     0.75609  -5.29229  -2.93536
C     1.01227  -3.17264  -3.07219
H     2.07151  -3.23106  -3.27125
C     0.39843  -1.93618  -2.99321
H     0.97046  -1.03326  -3.15125
C    -4.52898   1.18304  -4.37293
C    -5.61204   1.91209  -3.88615
H    -5.60828   2.25834  -2.86292
C    -6.70723   2.15873  -4.69250
H    -7.54504   2.71705  -4.30211
C    -6.73222   1.68999  -5.99565
H    -7.58694   1.88649  -6.62522
C    -5.65888   0.96600  -6.48822
H    -5.67390   0.59968  -7.50399
C    -4.56577   0.70869  -5.68248
H    -3.72410   0.15759  -6.07636
C     0.81183  -0.08342   1.76816
C     1.70987   0.22911  -0.88011
C     0.06353  -1.95487  -0.04055
O    -1.50334  -0.12392   0.66866
