39

Ti    0.00000   0.00000   0.00000
Cl   -0.63276  -1.76929  -1.07377
Si    1.00751   2.49957  -1.19146
N     1.34364   0.80255  -0.99570
C    -0.58683   2.19171  -0.19329
C    -1.64141   1.40554  -0.73403
C    -2.24298   0.66756   0.30754
C    -1.54875   0.95921   1.50102
C    -0.52256   1.87711   1.19147
C     0.71079   3.08015  -2.98718
C     2.22737   3.69744  -0.33872
C     2.38272  -0.01198  -1.45479
C     3.54427  -0.18059  -0.67942
C     4.54246  -1.03140  -1.13057
C     4.41680  -1.70465  -2.33208
C     3.28730  -1.51552  -3.10701
C     2.26623  -0.67372  -2.69061
C     3.72861   0.57340   0.60611
C     1.07238  -0.45797  -3.57666
H    -2.00516   1.45771  -1.75452
H    -3.14002   0.06523   0.22438
H    -1.81955   0.61900   2.49363
H     0.13040   2.35331   1.91466
H     5.42913  -1.16569  -0.52771
H     5.19851  -2.37047  -2.66544
H     3.19002  -2.02870  -4.05297
H     0.44197   4.13076  -3.00738
H     1.61369   2.96176  -3.57744
H    -0.08198   2.52409  -3.47725
H     3.19447   3.67019  -0.83005
H     2.37874   3.45671   0.70877
H     1.86040   4.71660  -0.39657
H     2.76476   0.86614   1.02909
H     4.26099  -0.04082   1.32919
H     4.31777   1.47339   0.42538
H     1.32950   0.23128  -4.38210
H     0.76259  -1.40057  -4.02397
H     0.23449  -0.04236  -3.01133
O     0.74594  -0.80063   1.23494
