40

Nb    0.00000   0.00000   0.00000
Cl   -0.75018   1.48583   1.74806
O     1.28393  -0.88100   1.43387
O     2.29261   0.84316   2.52275
C    -0.61002  -2.38498  -0.05164
C    -0.61856  -1.96737  -1.41047
C    -1.65671  -1.00321  -1.56617
C    -2.25694  -0.78715  -0.29011
C    -1.60337  -1.64456   0.63632
H    -1.91393  -1.81391   1.66056
C     1.74895   0.31813   3.73006
H     0.65805   0.39560   3.71029
H     2.15974   0.93086   4.52823
H     2.04124  -0.72714   3.85706
C     1.98981  -0.10274  -0.97886
H     2.48205  -1.07413  -0.85577
H     2.23167   0.34796  -1.94056
C     2.18128   0.80955   0.14667
C     1.93118   0.21976   1.40091
C     2.77184   2.18426   0.01763
H     2.39156   2.66359  -0.88526
H     3.85997   2.12801  -0.04752
H     2.50498   2.78959   0.88333
C     0.18710  -3.50883   0.52652
H    -0.28252  -4.46376   0.28134
H     0.24128  -3.41310   1.60930
H     1.20247  -3.51629   0.13187
C     0.14802  -2.59601  -2.53240
H     1.06293  -3.05783  -2.16838
H     0.40732  -1.85495  -3.28613
H    -0.45825  -3.36919  -3.00850
C    -2.14445  -0.45117  -2.86767
H    -2.84137  -1.15445  -3.32799
H    -1.31595  -0.28526  -3.55368
H    -2.65636   0.49717  -2.71757
C    -3.47905   0.03780  -0.01335
H    -3.41479   1.00576  -0.51384
H    -3.58209   0.21120   1.05747
H    -4.37186  -0.47763  -0.37351
O    -0.27298   1.26868  -1.01904
