55

Br   -0.88098   1.68274   1.26092
Fe    0.00000   0.00000   0.00000
N     0.82669  -0.78074   1.62787
N    -1.04981  -1.42108   0.14798
N    -1.24998   0.42515  -1.42727
C     0.40584  -1.99915   1.84476
C    -0.68799  -2.40789   1.00163
C    -1.38942  -3.61134   1.02761
H    -1.09297  -4.39624   1.70352
C    -2.46629  -3.78014   0.16969
H    -3.02766  -4.70121   0.18518
C    -2.80613  -2.77744  -0.72618
H    -3.62155  -2.90769  -1.41836
C    -2.06129  -1.59995  -0.73469
C    -2.17362  -0.47311  -1.62453
C     0.99788  -2.95051   2.83387
H     1.83052  -2.49164   3.35998
H     1.36044  -3.82537   2.29353
H     0.25597  -3.28538   3.55632
C    -3.21330  -0.42823  -2.69694
H    -3.01197   0.37867  -3.39685
H    -4.20214  -0.28277  -2.26259
H    -3.21638  -1.37369  -3.23707
C     1.58512  -0.09753   2.58556
C     1.13153  -0.00622   3.91286
C     1.90196   0.68425   4.83869
H     1.54574   0.74453   5.85733
C     3.09043   1.30296   4.49524
C     3.47256   1.28236   3.15962
H     4.36580   1.81032   2.85775
C     2.73127   0.61855   2.20091
C    -0.19546  -0.53603   4.36892
H    -0.85163  -0.76659   3.53360
H    -0.68401   0.22013   4.98048
H    -0.07477  -1.43159   4.97871
C     3.91873   2.02689   5.51076
H     3.56418   1.82542   6.51834
H     3.86876   3.10147   5.33635
H     4.96260   1.72617   5.43713
C     3.13407   0.69601   0.76386
H     4.00262   1.33772   0.64221
H     2.30896   1.12299   0.17537
H     3.36740  -0.28637   0.35806
C    -1.21225   1.66062  -2.06935
C    -0.00558   2.10749  -2.60764
H     0.85740   1.45811  -2.59083
C     0.07276   3.36065  -3.18253
H     1.00815   3.69374  -3.60657
C    -1.03762   4.18893  -3.20925
H    -0.97042   5.17088  -3.65252
C    -2.23013   3.75940  -2.65080
H    -3.09289   4.40862  -2.64933
C    -2.32473   2.50300  -2.08530
H    -3.24001   2.18241  -1.61155
O     0.97336  -0.81972  -1.05030
