53

Fe    0.00000   0.00000   0.00000
Br   -2.51863   2.73955   6.34407
N    -1.07040  -0.66664   1.53960
C    -1.53514  -1.87203   1.35326
Cl   -0.57877   1.95489   0.23736
N    -0.57643  -1.50225  -0.71267
C    -1.27030  -2.40110   0.04778
N     0.63582   0.29089  -1.84763
C    -1.66389  -3.62623  -0.47548
H    -2.20371  -4.32593   0.14157
N     3.41868   6.11888  -3.74212
C    -1.35454  -3.93564  -1.79341
H    -1.65601  -4.88260  -2.21173
C    -0.65478  -3.02318  -2.56690
H    -0.40703  -3.24627  -3.59187
C    -0.26837  -1.80718  -2.00997
C     0.45413  -0.74164  -2.63353
C    -2.30841  -2.64873   2.37209
H    -2.44018  -2.06604   3.28033
H    -1.77575  -3.56733   2.61543
H    -3.28706  -2.92223   1.98008
C     0.98063  -0.86149  -4.02886
H     1.67061  -0.05256  -4.25366
H     0.16268  -0.83669  -4.74864
H     1.50102  -1.81074  -4.14137
C    -1.40593   0.07059   2.69145
C    -2.61025   0.78894   2.68249
C    -2.92701   1.58348   3.77242
H    -3.84559   2.14971   3.77722
C    -2.06394   1.64872   4.84966
C    -0.88862   0.92320   4.87311
H    -0.23551   0.97621   5.73067
C    -0.54538   0.12221   3.79388
C    -3.54504   0.69284   1.51695
H    -4.35406   1.41031   1.61873
H    -3.97354  -0.30719   1.44800
H    -3.00740   0.89409   0.59087
C     0.71415  -0.68071   3.82099
H     1.41188  -0.31254   3.07068
H     0.51355  -1.72460   3.58451
H     1.18689  -0.62317   4.79740
C     1.23249   1.47390  -2.27715
C     2.32926   1.98308  -1.57811
H     2.72619   1.42052  -0.74624
C     2.89408   3.18229  -1.95083
H     3.74572   3.57385  -1.41525
C     2.36271   3.90088  -3.02446
C     1.25440   3.40539  -3.71297
H     0.83706   3.97153  -4.53259
C     0.69679   2.20066  -3.34362
H    -0.17639   1.82444  -3.85556
C     2.94380   5.12779  -3.41467
O     1.46137  -0.58539   0.49417
