30

Fe    0.00000   0.00000   0.00000
O    -1.05123   1.93173   1.88273
O    -1.73035   1.46351  -1.78037
O     1.32382   2.42940  -0.35252
O    -1.23904  -2.06435   0.04839
O    -2.57187  -3.69368   0.79633
N     0.74114  -1.17521  -1.48449
C    -0.63466   1.13197   1.18409
C    -1.06812   0.82482  -1.09570
C     1.26757   1.27132  -0.64447
C     2.28194   0.63377  -1.60984
H     2.52431   1.33419  -2.41313
H     3.19425   0.48403  -1.02040
C     1.80065  -0.67614  -2.13065
C     2.38778  -1.35093  -3.19083
H     3.24003  -0.92391  -3.69437
C     1.86647  -2.57537  -3.57501
H     2.30496  -3.12565  -4.39263
C     0.77818  -3.08901  -2.88858
H     0.34965  -4.04222  -3.15283
C     0.23846  -2.35568  -1.84085
C    -0.94843  -2.88122  -1.08338
H    -1.82935  -2.90708  -1.74037
H    -0.75958  -3.90725  -0.74003
C    -2.07996  -2.61538   0.96622
C    -2.26247  -1.71436   2.14355
H    -2.41058  -0.68766   1.81133
H    -1.36135  -1.75029   2.75660
H    -3.10748  -2.05031   2.73675
O     1.07688  -0.61655   1.08752
