55

Zr    0.00000   0.00000   0.00000
Cl    0.52000  -0.22932  -2.27830
C     1.19467   2.18995  -0.26921
C     2.19051   1.21685   0.03673
C     1.93516   0.72720   1.33355
C     0.77452   1.37785   1.84651
C     0.33092   2.29355   0.84381
C     1.17634   3.04865  -1.50002
C     3.36019   0.84571  -0.82643
C     0.20298   1.15348   3.17096
C    -0.50504   2.15181   3.84496
C    -1.03523   1.91312   5.09877
C    -0.86507   0.68025   5.70744
C    -0.16420  -0.31866   5.04953
C     0.36072  -0.09100   3.79162
C    -1.93460  -1.15064   1.10766
C    -1.97794  -1.51229  -0.27065
C    -2.21199  -0.34114  -1.01952
C    -2.30551   0.76305  -0.12211
C    -2.14314   0.24356   1.19847
C    -1.83510  -2.11773   2.25115
C    -1.88740  -2.90380  -0.82424
C    -2.55920   2.14593  -0.51505
C    -2.14570   2.59520  -1.77443
C    -2.38419   3.89865  -2.16676
C    -3.02565   4.78151  -1.31172
C    -3.43167   4.35006  -0.05935
C    -3.20562   3.04535   0.33666
H     2.58981   0.06557   1.88822
H    -0.44979   3.03545   0.95844
H     2.10663   3.61464  -1.57219
H     1.08777   2.43901  -2.40175
H     0.34579   3.75133  -1.46391
H     3.80497  -0.08643  -0.47875
H     3.05206   0.72089  -1.86515
H     4.12332   1.62596  -0.79297
H    -0.62729   3.12104   3.38353
H    -1.58025   2.69482   5.60756
H    -1.27712   0.49834   6.68850
H    -0.03389  -1.28317   5.51830
H     0.88422  -0.88479   3.27051
H    -2.41447  -0.31389  -2.08358
H    -2.28427   0.79269   2.12127
H    -2.65904  -2.83171   2.20635
H    -0.90229  -2.68357   2.20610
H    -1.88552  -1.59129   3.20224
H    -2.82323  -3.44207  -0.66043
H    -1.69154  -2.87134  -1.89571
H    -1.08768  -3.46424  -0.33847
H    -1.61915   1.91718  -2.43686
H    -2.06179   4.23245  -3.14233
H    -3.20690   5.80022  -1.61956
H    -3.93264   5.03385   0.61029
H    -3.54038   2.71122   1.30807
O     0.76952  -1.42289   0.32516
