41

Zr    0.00000   0.00000   0.00000
Cl   -1.37270  -1.59553   1.03573
C     0.43773   1.37691   1.98884
C     0.86814   0.07222   2.34833
C     1.95810  -0.26917   1.51229
C     2.23027   0.82444   0.65055
C     1.29782   1.84659   0.95436
C    -0.81814   0.31849  -2.34289
C    -0.27748   1.55217  -1.89348
C    -1.10565   2.02770  -0.83593
C    -2.13193   1.07844  -0.61010
C    -1.94676   0.02287  -1.54036
C    -0.62521   2.16127   2.70733
C     0.37045  -0.72733   3.51705
C     3.36485   0.90055  -0.33254
C    -0.37754  -0.44262  -3.55940
C     0.84934   2.29186  -2.55988
C    -3.27308   1.20081   0.36047
H     2.54758  -1.17647   1.58297
H     1.34196   2.86505   0.58733
H    -1.06222   3.01871  -0.40012
H    -2.61464  -0.82048  -1.67694
H    -1.54321   1.57667   2.80197
H    -0.84691   3.09097   2.18491
H    -0.29026   2.41503   3.71550
H    -0.71446  -0.67056   3.60502
H     0.80760  -0.34412   4.44238
H     0.65311  -1.77367   3.41137
H     3.25899   0.13419  -1.10580
H     3.40475   1.88273  -0.80135
H     4.31481   0.72698   0.17509
H     0.70942  -0.49253  -3.62607
H    -0.76763  -1.45897  -3.53540
H    -0.75143   0.04901  -4.46090
H     1.70611   1.63456  -2.72209
H     0.53006   2.66375  -3.53609
H     1.16411   3.14750  -1.96398
H    -4.22466   1.16890  -0.17305
H    -3.21834   2.14426   0.90251
H    -3.26619   0.37215   1.07440
O     0.83583  -1.18472  -0.78761
