62

Au    0.00000   0.00000   0.00000
P    -2.25853   0.07374   0.22491
O    -2.77118   1.63418   0.03722
O    -2.64251   0.04020   1.83254
C    -3.72566  -0.80867  -0.45582
C    -4.31869  -1.83452   0.29882
C    -5.69471  -2.00629   0.20107
H    -6.16041  -2.74622   0.82803
C    -6.47878  -1.24900  -0.65350
C    -5.81336  -0.43942  -1.56465
H    -6.38329   0.05550  -2.33375
C    -4.44432  -0.22458  -1.51511
C    -3.54006  -2.86452   1.10902
C    -3.92683  -4.25275   0.56204
H    -3.72957  -4.30491  -0.50664
H    -4.97500  -4.48164   0.72756
H    -3.33663  -5.01964   1.05816
C    -3.89449  -2.79219   2.59857
H    -4.96321  -2.91496   2.75536
H    -3.59311  -1.83542   3.01489
H    -3.37587  -3.58048   3.13936
C    -2.02533  -2.74053   0.94061
H    -1.54251  -3.63594   1.32819
H    -1.61894  -1.89985   1.49706
H    -1.75496  -2.64768  -0.11145
C    -7.99498  -1.33318  -0.68465
C    -8.43900  -1.91606  -2.03360
H    -8.13707  -1.27885  -2.86016
H    -9.52186  -2.01511  -2.05878
H    -7.99844  -2.89959  -2.18277
C    -8.57147   0.07907  -0.51049
H    -8.24370   0.50558   0.43551
H    -9.65853   0.04164  -0.51438
H    -8.25319   0.74149  -1.31053
C    -8.55741  -2.21751   0.43147
H    -8.25122  -3.25344   0.30562
H    -9.64454  -2.18763   0.40375
H    -8.23586  -1.86416   1.40869
C    -3.80257   0.50507  -2.68951
C    -4.24137  -0.23113  -3.97066
H    -3.97259  -1.28369  -3.91145
H    -3.74136   0.20335  -4.83310
H    -5.31172  -0.16133  -4.13785
C    -4.26364   1.96506  -2.76272
H    -5.34735   2.03356  -2.81544
H    -3.84672   2.43935  -3.64820
H    -3.92665   2.51437  -1.88852
C    -2.27463   0.45574  -2.66384
H    -1.85596   1.13573  -1.92631
H    -1.88486   0.76457  -3.63224
H    -1.91905  -0.55670  -2.47136
C    -3.44617   2.07263   1.15349
C    -4.11728   3.26277   1.29795
H    -4.16969   3.97247   0.48885
C    -4.71789   3.51196   2.52925
H    -5.24911   4.43948   2.67314
C    -4.64304   2.59616   3.56130
H    -5.11596   2.81316   4.50602
C    -3.96451   1.38991   3.40813
H    -3.90004   0.67115   4.20835
C    -3.37128   1.15062   2.19219
O     1.64618   0.00477  -0.11210
