33

Hg    0.00000   0.00000   0.00000
Br   -0.04404   2.11580  -1.24423
S     2.08447  -1.54291   0.37433
O    -0.61632  -4.62295  -2.82666
N    -1.72951  -4.00258  -2.96748
N     0.37109  -1.87766  -2.05276
N     0.52698  -2.96409  -1.25657
H     0.15348  -3.85274  -1.67049
N     1.79671  -4.16485   0.23781
C    -2.85460  -4.73573  -3.06713
H    -2.69767  -5.80174  -3.00281
C    -4.08849  -4.16231  -3.23656
H    -4.96163  -4.79036  -3.30073
C    -4.18098  -2.77951  -3.31891
H    -5.13426  -2.29299  -3.44019
C    -3.02174  -2.03742  -3.23345
H    -3.06797  -0.96273  -3.27324
C    -1.78284  -2.64653  -3.04031
C    -0.59515  -1.77743  -2.88960
C     1.43024  -2.98348  -0.26187
C     2.60726  -4.28060   1.42609
H     3.60313  -4.64893   1.17146
H     2.13352  -4.97341   2.12265
H     2.70778  -3.30758   1.90122
C     1.32523  -5.41553  -0.32226
H     0.28940  -5.61003  -0.03189
H     1.95166  -6.21841   0.05914
H     1.39127  -5.41828  -1.41048
C    -0.56134  -0.55836  -3.76040
H    -1.18450   0.23588  -3.34924
H    -0.91158  -0.79063  -4.76288
H     0.45618  -0.17936  -3.80305
O    -1.33572  -0.93923   0.23706
