20

Au    0.00000   0.00000   0.00000
S    -0.01959  -2.31254  -0.49705
S     0.95364  -0.72220  -2.84858
N     0.74932  -3.28245  -2.86461
C     0.54961  -2.22016  -2.06423
C     0.49527  -4.63984  -2.45463
H     0.14881  -4.63593  -1.42307
H     1.41206  -5.22675  -2.52539
H    -0.27158  -5.08434  -3.09079
C     1.22451  -2.96506  -4.12222
C     1.51996  -3.84703  -5.15492
H     1.38596  -4.90929  -5.03008
C     1.98967  -3.32838  -6.34720
H     2.22352  -4.00045  -7.15812
C     2.16570  -1.95975  -6.52002
H     2.53412  -1.58284  -7.46091
C     1.87363  -1.07342  -5.49891
H     2.00477  -0.01037  -5.61905
C     1.40366  -1.58963  -4.30544
O     0.07239   1.63650   0.19778
