58

Pd    0.00000   0.00000   0.00000
P    -0.75666  -1.90501   0.94757
N     2.90152   1.06769   0.01473
C     0.79686   1.52622  -1.18856
C     1.87267   0.67659  -0.80568
C     1.62353  -0.68281  -1.15836
C     3.75873   0.06552   0.61701
C     3.10973  -0.69640   1.78250
C     2.81637   2.33922   0.71274
C     1.80585   2.34089   1.86690
C     0.33175  -3.33523   1.25824
C     0.88232  -3.97272   0.14852
C     1.76872  -5.01846   0.31372
C     2.12299  -5.42994   1.58982
C     1.58648  -4.79297   2.69595
C     0.69526  -3.74602   2.53489
C    -1.96756  -2.61897  -0.20417
C    -2.47130  -3.90936  -0.06445
C    -3.38451  -4.39342  -0.98260
C    -3.79234  -3.60100  -2.04459
C    -3.27766  -2.32435  -2.19969
C    -2.36337  -1.83420  -1.28465
C    -1.60668  -1.69153   2.53891
C    -2.80703  -2.29594   2.88339
C    -3.36690  -2.04463   4.12438
C    -2.73715  -1.19522   5.01784
C    -1.54505  -0.57864   4.67076
C    -0.98520  -0.82156   3.43270
H     0.78950   2.57491  -0.91400
H     0.34992   1.34123  -2.16899
H     2.31417  -1.46332  -0.86241
H     1.18429  -0.85715  -2.14282
H     4.06208  -0.63569  -0.16517
H     4.66396   0.57109   0.96410
H     2.04025  -0.84788   1.58770
H     3.21363  -0.14905   2.71544
H     3.57234  -1.67279   1.90570
H     3.81500   2.57720   1.08873
H     2.55384   3.11094  -0.01530
H     2.23079   1.89670   2.76346
H     1.50217   3.35770   2.10096
H     0.90342   1.77436   1.59036
H     0.60190  -3.64085  -0.84403
H     2.18755  -5.51366  -0.55044
H     2.81843  -6.24592   1.72010
H     1.86279  -5.11231   3.69033
H     0.27752  -3.24956   3.39989
H    -2.13470  -4.53233   0.75381
H    -3.77901  -5.39317  -0.87184
H    -4.50806  -3.98410  -2.75694
H    -3.58918  -1.71264  -3.03340
H    -1.95189  -0.82476  -1.40540
H    -3.31259  -2.94268   2.18122
H    -4.30553  -2.50856   4.39020
H    -3.18375  -0.99958   5.98139
H    -1.06464   0.10070   5.35896
H    -0.06898  -0.31849   3.13010
O    -1.28662   0.87443   0.54999
