45

Cu    0.00000   0.00000   0.00000
N    -1.29788   1.67687  -0.30774
N     1.73834   0.43402   1.17638
O    -2.70535   1.17634   1.43492
O     1.39178  -1.25055   2.69701
O    -1.31652  -2.73723  -1.25700
N     0.31967  -1.20355  -1.74536
N     1.21468   1.35861  -1.35265
C     2.52252   1.40216   0.69613
C    -0.29231  -2.86048  -3.35261
H    -0.92121  -3.70302  -3.58587
C    -0.42690  -2.24987  -2.09232
C     3.40333  -0.07033   2.81267
H     3.69077  -0.68692   3.64752
C    -3.00527   3.21638   0.33773
H    -3.82280   3.43003   1.00540
C     1.21887  -0.71978  -2.60588
C     0.23271   2.07572  -2.13642
H    -0.16252   1.38611  -2.88911
H     0.66705   2.94292  -2.66095
C    -2.31757   1.99809   0.48560
C     2.15160  -0.29497   2.21115
C    -0.91530   2.52273  -1.26720
C    -2.61155   4.08343  -0.65140
H    -3.12092   5.02513  -0.79028
C     1.40928  -1.26728  -3.85907
H     2.14496  -0.85335  -4.53029
C     2.03449   0.45523  -2.13023
H     2.82560   0.07629  -1.47530
H     2.51046   0.95556  -2.99003
C    -1.54278   3.73524  -1.47407
H    -1.21050   4.39558  -2.25932
C     4.20811   0.92501   2.31601
H     5.17414   1.12076   2.75645
C     1.97130   2.20393  -0.45554
H     1.28625   2.95321  -0.04593
H     2.79013   2.73360  -0.97029
C     3.76391   1.68012   1.23312
H     4.37307   2.46906   0.82131
C     0.63461  -2.36244  -4.23457
H     0.76127  -2.81029  -5.20872
H    -2.19369   0.32221   1.42885
H    -1.30682  -2.26807  -0.37884
H     0.51217  -1.30815   2.23398
O    -0.88635  -0.99071   0.97743
