44

Ni    0.00000   0.00000   0.00000
Cl   -1.72385  -0.88373   0.89864
O     1.96131  -0.23559   3.41576
N     0.71212   0.31804   1.65978
N     1.38472  -1.97249   0.32498
C     1.37156   0.95797   3.69208
C     1.52340  -0.56318   2.19029
C     0.57679   1.31727   2.58984
C     2.81078  -2.68772   2.11964
H     3.21721  -2.48854   3.09771
C    -0.16215   2.49253   2.59376
H    -0.77311   2.73882   1.74132
C     1.70700  -3.05579  -0.36594
C     1.45941   1.75770   4.81742
H     2.07079   1.47759   5.65938
C     1.92526  -1.78698   1.53312
C     0.72242   2.92477   4.80102
H     0.76140   3.57834   5.65986
C    -0.08268   3.29842   3.71398
C     2.58705  -4.01037   0.14756
H     2.83129  -4.88470  -0.43583
C     1.08311  -3.19895  -1.71182
H     1.19995  -2.26335  -2.25476
H     0.01513  -3.37766  -1.59358
H     1.52776  -4.01524  -2.27424
O    -0.81216  -0.59240  -1.75591
O    -1.04621   2.14347  -0.44526
C    -0.84987   4.58367   3.78463
H    -1.47959   4.70652   2.90842
H    -0.16454   5.42841   3.84277
H    -1.47822   4.60316   4.67338
C    -0.80350  -0.01569  -3.04490
H    -1.53809   0.78854  -3.14110
H    -1.01435  -0.78332  -3.79804
H     0.19434   0.39169  -3.20836
C     3.13979  -3.82474   1.40276
H     3.82203  -4.55312   1.81600
C    -2.28212   2.71721  -0.79980
H    -2.30459   3.78632  -0.55728
H    -3.04724   2.20136  -0.22046
H    -2.50114   2.59734  -1.86649
H    -0.32116   2.52793  -0.96421
H    -1.71495  -0.83804  -1.48742
O     1.27016   0.76567  -0.72314
