27

Re    0.00000   0.00000   0.00000
O    -1.58056  -0.80222   2.52833
O     2.04429  -2.31625   0.19328
O    -1.77743  -1.58253  -1.97919
N     1.21015   1.40419   1.07425
N     1.50553   3.73003   1.41788
N    -1.07455   1.85473  -0.20619
C    -0.99656  -0.51546   1.58441
C     1.24684  -1.49722   0.14326
C    -1.13357  -1.03888  -1.20562
C     2.36534   1.17827   1.70033
H     2.67317   0.14436   1.79672
C     3.13944   2.20984   2.19854
H     4.07658   2.01442   2.69100
C     2.64967   3.50092   2.03041
H     3.17848   4.37263   2.38973
C     0.83173   2.69116   0.95085
C    -0.42035   2.94045   0.24100
C    -0.88245   4.23672   0.03110
H    -0.29839   5.05833   0.41180
C    -2.05935   4.41965  -0.66796
H    -2.43968   5.41111  -0.85806
C    -2.73704   3.29678  -1.12461
H    -3.65798   3.38711  -1.67762
C    -2.21173   2.04261  -0.87078
H    -2.71869   1.15201  -1.21950
O     0.84535   0.55988  -1.30169
