40

Zr    0.00000   0.00000   0.00000
Cl    1.01451  -0.93654   1.88529
C     1.77132   1.71016   0.32436
H     2.69071   1.53998   0.87359
C     1.60219   1.59124  -1.07524
H     2.38418   1.35996  -1.78685
C     0.57864   2.24424   0.86269
H     0.41517   2.51906   1.89879
C    -0.32399   2.46240  -0.20407
H    -1.29174   2.94292  -0.12391
C     0.30683   2.05999  -1.39955
H    -0.07514   2.21907  -2.40036
C     0.21289  -0.98822  -2.23971
H     0.84705  -0.64997  -3.04862
C    -1.16584  -0.69881  -2.08846
H    -1.75902  -0.06163  -2.73367
C    -1.67475  -1.53685  -1.07440
H    -2.71388  -1.62099  -0.78124
C    -0.61289  -2.32243  -0.57296
H    -0.71680  -3.10622   0.16777
C     0.56394  -1.99524  -1.30121
C     1.92235  -2.67837  -1.26242
C     1.95782  -3.75066  -0.16015
H     1.76401  -3.28561   0.80418
H     2.93850  -4.21898  -0.12404
H     1.21308  -4.52117  -0.34148
C     2.98325  -1.60743  -0.93687
H     3.93581  -2.07144  -0.69219
H     2.65938  -1.02911  -0.06478
H     3.12455  -0.95204  -1.79436
N     2.16397  -3.19788  -2.62138
C     1.15064  -4.12643  -3.08494
H     0.16009  -3.73474  -2.86910
H     1.24472  -5.12602  -2.63655
H     1.25255  -4.23051  -4.16547
C     3.48085  -3.75062  -2.86075
H     3.55544  -3.98529  -3.92264
H     3.67699  -4.67494  -2.29755
H     4.25152  -3.02254  -2.62530
O    -1.36844   0.21451   0.89658
