23

Pt    0.00000   0.00000   0.00000
C     2.45018   0.61281   1.40623
C     3.38280   0.59459   2.43613
C     3.11081  -0.13957   3.58778
C     1.91239  -0.82717   3.66112
C     1.03108  -0.76256   2.59489
C     4.67077   1.34560   2.33407
Cl    0.24849   2.35069  -0.21275
Cl    1.72051  -0.36413  -1.59331
Cl   -0.32903  -2.35112   0.11031
N    -1.36781   0.05710  -1.56409
H    -1.03828   0.69432  -2.29399
H    -2.27145   0.38301  -1.20893
H    -1.47944  -0.88242  -1.95540
N     1.30243  -0.05542   1.49536
O     4.79189   2.00524   1.18713
H     5.63655   2.48235   1.14858
O     5.50380   1.34792   3.20030
H     2.64197   1.17731   0.50154
H     3.83478  -0.15440   4.38869
H     1.65404  -1.40998   4.53038
H     0.08519  -1.28941   2.62077
O    -1.25518   0.25938   1.03911
