32

Pt    0.00000   0.00000   0.00000
C    -0.27442   2.08714   2.31342
C     0.20948   2.34385   3.73882
C    -0.24050   3.35610   1.47515
C    -0.25279  -2.43648  -1.54768
H     0.14285  -2.84368  -0.62601
C    -0.53327  -3.25685  -2.62377
H    -0.36315  -4.32067  -2.57080
C    -1.04299  -2.69253  -3.78982
C    -1.25095  -1.31756  -3.82632
C    -0.94506  -0.56612  -2.70621
C    -1.34841  -3.57866  -4.95289
N     0.58649   1.06104   1.68543
N    -0.45815  -1.11974  -1.59559
O    -1.81449  -2.90535  -6.00482
O    -1.19158  -4.76986  -4.94447
Cl    2.12149  -1.06301   0.21104
Cl    1.02665   1.61676  -1.40222
Cl   -2.13973   1.00643  -0.22202
H    -1.29437   1.68831   2.34252
H     0.76263   0.31113   2.36594
H     1.49423   1.48585   1.45989
H    -2.00094  -3.51068  -6.74044
H    -0.42033   3.09062   4.21320
H     1.23367   2.71255   3.73633
H     0.16327   1.43447   4.33435
H    -0.54081   3.14077   0.45277
H     0.76148   3.78085   1.46384
H    -0.92601   4.09212   1.88436
H    -1.64366  -0.84180  -4.70999
H    -1.09499   0.50602  -2.69958
O    -0.67617  -1.08656   1.04148
