52

Pt    0.00000   0.00000   0.00000
Br    2.15954  -0.84209   0.89596
O     2.65729   4.82194   0.44610
N     0.13671   1.82927   1.35212
N     0.31265   4.00744   1.74139
N     1.21449   1.26801  -1.46504
N     2.50820   3.01615  -1.90628
C    -1.11365  -1.07548   1.36025
H    -1.93672  -1.59522   0.86846
H    -1.52840  -0.36541   2.07951
H    -0.49607  -1.80532   1.88427
C    -0.07365  -1.61296  -1.27805
H     0.12008  -2.54650  -0.74829
H     0.70717  -1.47018  -2.02890
H    -1.04370  -1.68098  -1.77199
C     0.02318   3.03018   0.85594
H    -0.31134   3.25169  -0.14160
C     0.53772   1.99403   2.65725
C     0.65627   3.37638   2.91627
C     0.81108   1.06188   3.65244
H     0.73848   0.00474   3.45929
C     1.19261   1.54548   4.88493
H     1.41722   0.84947   5.67823
C     1.29673   2.91491   5.13848
H     1.59319   3.24595   6.12233
C     1.03209   3.85392   4.16278
H     1.10908   4.91172   4.36554
C     2.18048   2.03443  -1.03647
H     2.69699   1.91140  -0.10221
C     0.86488   1.75086  -2.70581
C     1.67062   2.87395  -2.99016
C    -0.07906   1.30916  -3.62703
H    -0.69446   0.44900  -3.42504
C    -0.20382   2.02334  -4.79882
H    -0.93265   1.71177  -5.53068
C     0.58596   3.14347  -5.06664
H     0.44962   3.67280  -5.99750
C     1.53769   3.58761  -4.17186
H     2.15064   4.45056  -4.38590
C     0.49016   5.39636   1.42749
H     0.04639   6.01889   2.20915
H    -0.01651   5.60100   0.48083
C     1.99796   5.70656   1.32052
H     2.14576   6.75051   1.01881
H     2.46335   5.54724   2.29743
C     2.75043   5.23226  -0.89956
H     3.35721   6.14670  -0.97402
H     1.75836   5.43701  -1.32842
C     3.42650   4.09368  -1.67278
H     3.79183   4.46071  -2.63383
H     4.26667   3.72659  -1.07845
O    -1.40401   0.65266  -0.57034
