59

Pt    0.00000   0.00000   0.00000
Br    0.53404   1.05015   2.19886
O    -4.75661   3.22958   1.18230
O    -4.66369   3.24068  -1.80021
N    -2.15901  -0.12652   0.69919
N    -3.90397   0.52833   1.89992
N    -0.63202   1.99509  -0.88793
N    -1.76992   3.28374  -2.28801
C     1.94626   0.19013  -0.65545
H     2.61278   0.47695   0.15797
H     1.95959   0.96929  -1.42240
H     2.30897  -0.73921  -1.09615
C     0.49822  -1.82646   0.81826
H     0.57747  -2.59773   0.05192
H    -0.29468  -2.09807   1.52050
H     1.44201  -1.77237   1.36223
C    -3.08388  -1.14536   0.69062
C    -4.20371  -0.73528   1.44679
C    -2.68584   0.83456   1.40891
H    -2.22208   1.78239   1.60867
C    -3.05779  -2.40099   0.09250
H    -2.21338  -2.72084  -0.49502
C    -4.15919  -3.21039   0.26959
H    -4.17228  -4.18958  -0.18380
C    -5.26315  -2.79915   1.01955
H    -6.10282  -3.46877   1.13014
C    -5.30698  -1.55752   1.62001
H    -6.16372  -1.24214   2.19688
C    -4.74210   1.39168   2.68122
H    -4.10738   2.03109   3.29958
H    -5.38049   0.78111   3.32355
C    -5.60666   2.27939   1.78203
H    -6.10950   1.65776   1.02772
H    -6.37486   2.78683   2.38588
C    -5.39851   4.17207   0.36001
H    -4.68334   4.99247   0.25968
H    -6.30748   4.55502   0.84694
C    -5.77435   3.62900  -1.02946
H    -6.38076   2.72566  -0.92582
H    -6.36650   4.38955  -1.55830
C    -3.99036   4.29479  -2.44874
H    -3.62854   5.04287  -1.72929
H    -4.66695   4.79362  -3.16004
C    -2.80088   3.69004  -3.19904
H    -3.14439   2.81362  -3.75351
H    -2.39033   4.42452  -3.89588
C    -1.64909   2.07467  -1.70304
H    -2.33407   1.27545  -1.91649
C    -0.75444   4.06503  -1.78751
C    -0.03254   3.23355  -0.90380
C    -0.38677   5.38316  -2.01284
H    -0.94079   6.01846  -2.68797
C     0.72008   5.84929  -1.33336
H     1.03834   6.87049  -1.48034
C     1.43821   5.03234  -0.45738
H     2.29547   5.44261   0.05386
C     1.08141   3.72098  -0.22811
H     1.63463   3.09919   0.45586
O    -0.37533  -0.68206  -1.45479
