46

Pt    0.00000   0.00000   0.00000
N    -1.06548  -1.81288   0.23527
N     1.05674   1.76626  -0.36544
C    -0.42025  -0.59522   3.05099
H    -1.41724  -0.15569   3.18632
C     0.31620   0.17538   1.97211
C     1.34443   0.84296   2.54223
C     1.43100   0.54772   3.96292
C     2.32390   0.96327   4.93911
H     3.13310   1.64044   4.70620
C     2.16284   0.48663   6.22994
H     2.85149   0.79743   7.00293
C     1.13134  -0.38350   6.54710
H     1.02701  -0.74173   7.56097
C     0.23090  -0.79880   5.57377
H    -0.57498  -1.47266   5.82924
C     0.39236  -0.33552   4.28797
C    -0.58882  -2.07395   2.71551
H     0.38568  -2.50820   2.49066
H    -0.99702  -2.60075   3.58069
C    -1.56059  -2.24538   1.55575
H    -1.85523  -3.30260   1.47979
H    -2.45789  -1.66296   1.78458
C     2.24151   1.83221   1.86500
H     3.12907   1.34638   1.45330
H     2.58641   2.56347   2.59968
C     1.47025   2.58579   0.78676
H     2.08129   3.42150   0.41452
H     0.56801   2.99659   1.24878
C    -2.24164  -1.77557  -0.64776
H    -1.93319  -1.58398  -1.67294
H    -2.91284  -0.97542  -0.33142
H    -2.77839  -2.73072  -0.61211
C    -0.11586  -2.81200  -0.27393
H    -0.57117  -3.80964  -0.28420
H     0.77643  -2.83343   0.35330
H     0.17678  -2.54940  -1.29006
C     0.19174   2.60847  -1.20332
H     0.70681   3.53635  -1.47810
H    -0.71987   2.85541  -0.65576
H    -0.07806   2.07305  -2.11169
C     2.24860   1.38195  -1.13286
H     2.86010   2.26196  -1.36320
H     1.94519   0.90935  -2.06511
H     2.84331   0.66736  -0.56300
O    -0.07456  -0.22087  -1.63345
