26

Pt    0.00000   0.00000   0.00000
C    -0.82526   1.69126  -1.44565
H    -1.89957   1.52322  -1.42035
C    -0.23733   2.27189  -0.37014
H    -0.87225   2.59426   0.45318
C     1.17292   2.79658  -0.29210
H     1.20524   3.79812  -0.73415
H     1.43082   2.90662   0.76551
C     2.23074   1.89955  -0.96464
H     3.19968   2.12584  -0.51463
H     2.31295   2.12952  -2.02767
C     1.95047   0.42298  -0.79340
H     2.68519  -0.10016  -0.18275
C     1.22268  -0.34707  -1.69969
H     1.45564  -1.41182  -1.75388
C     0.52317   0.15145  -2.93982
H    -0.22600  -0.59751  -3.21834
H     1.24800   0.19491  -3.76025
C    -0.17638   1.51674  -2.79277
H    -0.94730   1.58734  -3.56303
H     0.52695   2.33130  -2.96727
C     0.61425  -1.75133   0.86702
H     1.59047  -2.08595   0.50984
H    -0.11715  -2.54018   0.67229
H     0.67278  -1.60186   1.94931
O    -1.37905  -0.08080   0.90232
