47

Hg    0.00000   0.00000   0.00000
I     1.18605   2.21431   0.76767
N     2.00607  -0.81171  -1.68542
C     1.53272  -1.93066  -2.51325
H     0.75046  -1.54109  -3.16626
H     1.05446  -2.65808  -1.85283
C    -0.17833  -2.01750   4.28152
H     0.45274  -2.75173   4.75758
N    -0.65412  -0.66846   2.37571
N     1.45880  -1.75026   1.04525
C     2.20719  -2.97155   3.01421
C     3.07260  -2.43929   3.96487
H     3.06894  -1.37523   4.15284
C     0.11688  -1.56486   2.99647
C     1.28989  -2.07759   2.26410
C     3.93806  -4.63383   4.40535
H     4.61142  -5.28083   4.94682
C     3.93847  -3.27080   4.65262
H     4.61224  -2.85263   5.38512
C     3.07379  -5.16682   3.46335
H     3.06967  -6.22894   3.27005
C    -1.71801  -0.19372   2.99799
H    -2.30808   0.53088   2.45002
C    -2.08254  -0.58227   4.27936
H    -2.95993  -0.16392   4.74553
C     2.50375   0.31024  -2.49524
H     3.36223  -0.00010  -3.10860
H     2.86168   1.07498  -1.80031
C     2.58648  -2.23616   0.29883
H     2.28050  -3.15838  -0.20621
H     3.43444  -2.47989   0.95304
C     2.57611  -2.65084  -3.36864
H     3.06145  -1.97052  -4.06376
H     2.07401  -3.42143  -3.94805
H     3.33836  -3.13123  -2.75893
C     1.43631   0.93576  -3.38330
H     1.18023   0.30154  -4.22797
H     1.80343   1.88390  -3.76813
H     0.52921   1.13340  -2.80788
C     3.04633  -1.20482  -0.73388
H     3.35651  -0.30532  -0.19312
H     3.93474  -1.60481  -1.24498
C    -1.29421  -1.51578   4.93024
H    -1.54205  -1.85138   5.92620
C     2.21416  -4.33944   2.76297
H     1.53550  -4.75101   2.02968
O    -1.27195  -0.76840  -0.71708
