47

Zn    0.00000   0.00000   0.00000
Br   -2.12051   1.05074  -0.18622
N    -0.79753  -1.99447  -0.64329
C     0.02261  -2.61713  -1.49119
C    -1.83028  -2.64316  -0.14117
H    -2.46439  -2.08128   0.53190
C    -1.25956  -4.62684  -1.33025
H    -1.43782  -5.65702  -1.59960
C    -0.17935  -3.94323  -1.86445
H     0.49274  -4.42159  -2.55963
C    -2.10444  -3.96763  -0.45274
H    -2.95770  -4.46157  -0.01718
C     2.16830  -2.50328  -2.81932
C     1.13392  -1.81215  -2.01981
C     2.99823  -3.43327  -2.19811
H     2.87997  -3.63116  -1.14276
C     2.32921  -2.22737  -4.17301
H     1.67810  -1.51195  -4.65468
N     1.13920  -0.56935  -1.74049
C     2.17880   0.32198  -2.15314
H     1.78515   0.93370  -2.97181
H     3.06985  -0.20725  -2.51430
C     2.56883   1.21731  -0.97305
H     3.05179   0.58595  -0.22200
H     3.30796   1.95389  -1.31453
N     1.41508   1.85484  -0.33712
C     1.86295   2.47208   0.92355
H     2.63406   3.22945   0.72483
H     2.32802   1.68247   1.51963
C     0.73641   2.81517  -1.22170
H    -0.13574   3.19060  -0.68597
H     0.35662   2.26437  -2.08506
C     4.13164  -3.80707  -4.28034
H     4.89606  -4.31450  -4.84906
C     3.98054  -4.07580  -2.92928
H     4.62800  -4.78935  -2.44264
C     3.30446  -2.88587  -4.90091
H     3.41985  -2.67495  -5.95333
C     1.56167   4.00328  -1.71340
H     1.92392   4.60816  -0.88631
H     0.92461   4.62955  -2.33278
H     2.41137   3.68967  -2.31641
C     0.73740   3.08522   1.74412
H     0.33321   3.98329   1.28455
H     1.12305   3.34953   2.72568
H    -0.07194   2.37074   1.88303
O     0.94719  -0.73680   1.13246
