46

Ti    0.00000   0.00000   0.00000
Cl    1.29822  -0.12884  -1.77899
N    -1.45446  -0.78426  -0.59020
N    -2.09936  -0.98899  -1.68824
C    -3.53735   0.86195  -1.04068
C    -3.17476  -0.19812  -2.02262
C    -3.85182  -0.40406  -3.20322
C    -3.48480  -1.42497  -4.06665
C    -2.44142  -2.25476  -3.68528
C    -1.76821  -2.04782  -2.50277
C    -0.66623  -2.92781  -2.01916
C     0.00347  -1.46745   1.76392
C     1.31500  -1.44286   1.21094
C     1.84984  -0.13586   1.40195
C     0.86982   0.65378   2.04675
C    -0.28521  -0.15683   2.24446
C    -0.87921  -2.66721   1.97046
C     2.09943  -2.59938   0.66127
C     3.25667   0.26481   1.06944
C     1.04204   2.04892   2.57013
C    -1.53490   0.26844   2.96178
H    -3.54896   0.44090  -0.03139
H    -2.78311   1.65375  -1.04562
H    -4.50691   1.28972  -1.27727
H    -4.67728   0.24739  -3.44416
H    -4.00567  -1.57951  -4.99664
H    -2.14196  -3.08052  -4.31155
H    -0.86248  -3.22229  -0.98559
H    -0.58093  -3.81029  -2.64624
H     0.28130  -2.38080  -2.03027
H    -1.85127  -2.53181   1.49166
H    -0.41616  -3.56582   1.56795
H    -1.04478  -2.82359   3.03843
H     1.46897  -3.47446   0.51519
H     2.55067  -2.33765  -0.29758
H     2.90430  -2.86754   1.34993
H     3.94895  -0.13825   1.81340
H     3.55171  -0.12104   0.09236
H     3.36566   1.34850   1.05850
H     1.40337   2.01785   3.60168
H     1.76163   2.61117   1.97599
H     0.09622   2.58991   2.55686
H    -1.86575   1.24811   2.61042
H    -2.33665  -0.44908   2.79254
H    -1.35495   0.33714   4.03774
O    -0.34246   1.59721  -0.23270
