58

Pt    0.00000   0.00000   0.00000
Cl   -1.26129   1.71984   0.84284
P    -1.93577  -0.78226  -0.90195
P     1.07281  -1.87274  -0.71426
O     0.94684  -4.75009  -2.42747
O    -3.56180  -3.28986  -2.41929
C    -3.50951  -1.00705  -0.05383
C    -3.72877  -2.16846   0.68111
H    -2.97395  -2.94461   0.69503
C    -4.90947  -2.32156   1.38238
H    -5.08908  -3.22641   1.94393
C    -5.85936  -1.31215   1.36941
H    -6.78042  -1.43448   1.91962
C    -5.62719  -0.14305   0.66221
H    -6.36345   0.64680   0.66668
C    -4.45144   0.01692  -0.04698
H    -4.25286   0.92928  -0.59168
C    -2.28580   0.12406  -2.43220
C    -3.42941  -0.12667  -3.18482
H    -4.14327  -0.86684  -2.85284
C    -3.63423   0.57683  -4.35781
H    -4.52141   0.39111  -4.94477
C    -2.70628   1.51655  -4.78119
H    -2.87539   2.06308  -5.69714
C    -1.56368   1.75766  -4.03472
H    -0.84328   2.49054  -4.36558
C    -1.34963   1.05985  -2.86020
H    -0.46406   1.24583  -2.25383
C    -1.50274  -2.41166  -1.56179
C    -2.37108  -3.38350  -2.24225
C    -1.46839  -4.51487  -2.70729
H    -1.52569  -4.64180  -3.79011
H    -1.76149  -5.46663  -2.25971
C    -0.06859  -4.11660  -2.26748
C    -0.19990  -2.82064  -1.58633
C     1.40843  -2.95512   0.69967
C     2.09769  -4.15552   0.55502
H     2.45883  -4.45751  -0.41762
C     2.30694  -4.95258   1.66573
H     2.84516  -5.88305   1.56244
C     1.82891  -4.56167   2.90749
H     1.99961  -5.18873   3.77000
C     1.13378  -3.37076   3.04688
H     0.76339  -3.06833   4.01483
C     0.91966  -2.56629   1.94271
H     0.38791  -1.62039   2.03556
C     2.52490  -1.93034  -1.77943
C     3.80025  -1.95163  -1.22386
H     3.91463  -1.98154  -0.14939
C     4.90567  -1.92659  -2.05364
H     5.89762  -1.94710  -1.62755
C     4.74232  -1.87072  -3.42877
H     5.60839  -1.85433  -4.07351
C     3.47149  -1.82504  -3.98038
H     3.34812  -1.77034  -5.05190
C     2.36068  -1.84349  -3.15886
H     1.36347  -1.79402  -3.57788
O     1.49120   0.53312   0.46325
