33

Pt    0.00000   0.00000   0.00000
Cl    1.04167  -0.54981   1.90746
N    -1.08460   0.64553  -1.59137
N    -0.24455   1.89317   0.52557
C    -1.35008   0.05526  -2.78320
C    -0.50283  -0.95090  -3.28543
H     0.38587  -1.20347  -2.72853
C    -0.80657  -1.58781  -4.46013
H    -0.15391  -2.36213  -4.83228
C    -1.94887  -1.23798  -5.19109
H    -2.17747  -1.75994  -6.10787
C    -2.75324  -0.21512  -4.76173
H    -3.61222   0.09411  -5.33910
C    -2.46668   0.46732  -3.56755
C    -3.23357   1.56996  -3.12195
H    -4.09355   1.88105  -3.69588
C    -2.85212   2.23986  -1.99892
H    -3.37653   3.11684  -1.65358
C    -1.76469   1.75387  -1.23873
C    -1.26161   2.43026  -0.08746
H    -1.65131   3.40459   0.19061
C     0.39902   2.53149   1.58164
C    -0.30217   3.24669   2.55345
H    -1.38055   3.29618   2.51197
C     0.38095   3.83414   3.60013
H    -0.16723   4.37096   4.35975
C     1.76006   3.72534   3.68450
H     2.28651   4.18299   4.50812
C     2.45971   3.01784   2.71984
H     3.53250   2.92447   2.78867
C     1.78731   2.41640   1.67494
H     2.31764   1.86174   0.91394
O    -0.03491  -1.61189  -0.35086
