37

Pt    0.00000   0.00000   0.00000
Cl   -1.44953  -0.50107   1.62680
O     2.90573   5.41803  -3.00832
N     0.34173  -1.89335  -0.63107
N     1.03993   0.39602  -1.64565
C     0.17448  -3.08405  -0.00397
C     0.15212  -3.15161   1.40209
H     0.31547  -2.24581   1.96517
C    -0.06878  -4.34764   2.03349
H    -0.08971  -4.38702   3.11153
C    -0.25675  -5.52359   1.29645
H    -0.44018  -6.45413   1.81201
C    -0.17624  -5.49800  -0.07123
H    -0.27764  -6.40497  -0.64929
C     0.05903  -4.29159  -0.75165
C     0.21044  -4.23062  -2.15763
H     0.10329  -5.13394  -2.73933
C     0.52361  -3.04312  -2.74616
H     0.69822  -2.96275  -3.80752
C     0.58674  -1.87267  -1.95594
C     0.98481  -0.60743  -2.47904
H     1.33229  -0.52459  -3.50376
C     1.53085   1.63897  -2.01044
C     1.34870   2.18022  -3.28869
H     0.79122   1.63195  -4.03328
C     1.81672   3.43795  -3.58015
H     1.66059   3.87667  -4.55273
C     2.49096   4.19365  -2.61311
C     2.68557   3.65167  -1.34339
H     3.20060   4.20579  -0.57579
C     2.20195   2.39491  -1.04688
H     2.35505   1.97025  -0.06506
C     3.52582   6.26355  -2.06607
H     3.72629   7.19400  -2.59446
H     4.46933   5.84029  -1.70813
H     2.86803   6.46297  -1.21550
O    -0.30916   1.58836   0.32252
