26

Au    0.00000   0.00000   0.00000
Cl   -1.36718  -0.90148   1.66241
N     1.18652   0.75949   1.49905
C     0.63255   1.33511   2.56323
H    -0.44345   1.41275   2.55778
C     1.38808   1.77269   3.63257
H     0.90434   2.23267   4.47822
C     2.76365   1.59857   3.59063
H     3.38637   1.92172   4.41076
C     3.32587   0.99688   2.47901
H     4.39088   0.83856   2.41442
C     2.50755   0.57833   1.43637
C     3.06280  -0.06802   0.20684
H     2.68482  -1.09430   0.14881
H     4.15086  -0.10626   0.26233
C     2.62209   0.69033  -1.02407
C     3.56187   1.27300  -1.86387
H     4.61428   1.16150  -1.64486
C     3.15538   1.98149  -2.98035
H     3.89280   2.42564  -3.63185
C     1.80784   2.11649  -3.25794
H     1.48118   2.66765  -4.12643
C     0.86444   1.53792  -2.42137
H    -0.18454   1.62995  -2.65218
C     1.27096   0.82882  -1.30782
O    -0.86478  -0.61048  -1.26569
