62

Pd    0.00000   0.00000   0.00000
P     1.67591  -0.20927   1.43120
O    -2.22444   0.44060  -3.46299
C    -1.25708   0.64572  -2.56113
N    -1.51810   0.28938  -1.36403
C    -2.82129  -0.35542  -1.31233
C    -3.28405  -0.24234  -2.79023
H    -3.42141  -1.21631  -3.26848
H    -4.19851   0.34603  -2.89827
C    -3.74790   0.38679  -0.35166
H    -4.70578  -0.12333  -0.28686
H    -3.90886   1.40799  -0.69170
H    -3.28991   0.42920   0.63566
C    -2.58333  -1.79556  -0.84287
H    -2.03291  -1.76340   0.11321
H    -1.98010  -2.33979  -1.57133
H    -3.52590  -2.31629  -0.69313
S     1.18227  -1.00786  -1.74599
C     1.21016   0.53414  -2.57726
C     0.03076   1.20361  -2.96974
C     0.10227   2.35760  -3.73933
H    -0.81466   2.84554  -4.03522
C     1.32972   2.87833  -4.10470
H     1.37868   3.78183  -4.69293
C     2.49476   2.23143  -3.71538
H     3.45564   2.63489  -3.99993
C     2.43725   1.06886  -2.97408
H     3.33868   0.54942  -2.68254
C     3.25667  -0.90387   0.85908
C     3.30120  -2.27987   0.64973
H     2.41946  -2.87253   0.86071
C     4.44951  -2.87007   0.16155
H     4.48075  -3.93692  -0.00296
C     5.55840  -2.08927  -0.12844
H     6.45561  -2.54943  -0.51558
C     5.51328  -0.71968   0.06748
H     6.37515  -0.11134  -0.16636
C     4.36418  -0.12206   0.55712
H     4.32759   0.94906   0.70314
C     2.10067   1.50044   1.87585
C     1.95850   2.41649   0.83102
H     1.60532   2.06885  -0.14954
C     2.24121   3.75215   1.03921
H     2.12937   4.46141   0.23214
C     2.65358   4.18144   2.29241
H     2.86466   5.22735   2.45958
C     2.77768   3.27694   3.33300
H     3.08199   3.61880   4.31147
C     2.50395   1.93413   3.13012
H     2.58077   1.23258   3.94793
C     1.35209  -1.17489   2.92708
C     2.34289  -1.43223   3.87015
H     3.34189  -1.04409   3.72212
C     2.04530  -2.20001   4.98086
H     2.80889  -2.39622   5.71953
C     0.77186  -2.72339   5.14496
H     0.54616  -3.32105   6.01580
C    -0.20687  -2.49267   4.19170
H    -1.19319  -2.91412   4.31646
C     0.08278  -1.72238   3.08013
H    -0.67005  -1.52426   2.31755
O    -0.75562   0.83566   1.20549
