62

Pd    0.00000   0.00000   0.00000
P     0.78231  -1.24470  -1.65512
O    -1.96954   1.29336   3.40622
C    -1.75625   0.66318   2.24475
N    -0.82639   1.13605   1.50979
C    -0.15752   2.22862   2.19939
C    -0.96775   2.30551   3.52179
H    -0.36091   2.08690   4.40518
H    -1.46370   3.27029   3.65329
C    -0.25164   3.51531   1.38199
H     0.18038   3.35250   0.39547
H     0.28255   4.31739   1.88537
H    -1.29186   3.80651   1.24964
C     1.30369   1.80450   2.38800
H     1.36663   0.92754   3.03414
H     1.89056   2.61272   2.81738
H     1.71949   1.54204   1.40018
S    -0.09709  -1.79560   1.49149
C    -1.84540  -1.68051   1.46807
C    -2.53357  -0.52328   1.89257
C    -3.91972  -0.52544   1.98362
H    -4.42174   0.36860   2.32283
C    -4.64106  -1.65013   1.62930
H    -5.71848  -1.64175   1.69105
C    -3.97288  -2.78857   1.19887
H    -4.53370  -3.66894   0.92052
C    -2.59475  -2.80983   1.13249
H    -2.06608  -3.69781   0.81723
C     0.98451  -3.03665  -1.41564
C     2.05739  -3.45059  -0.63035
H     2.73065  -2.70534  -0.22463
C     2.24260  -4.79173  -0.36100
H     3.07375  -5.11022   0.25056
C     1.35338  -5.72782  -0.86738
H     1.49459  -6.77697  -0.65298
C     0.27922  -5.31840  -1.63871
H    -0.41738  -6.04776  -2.02663
C     0.08848  -3.97455  -1.91234
H    -0.75504  -3.65540  -2.50950
C    -0.49532  -1.13485  -2.94213
C    -1.80012  -1.06792  -2.44823
H    -1.96881  -1.06938  -1.36257
C    -2.86640  -0.98047  -3.32153
H    -3.87567  -0.92698  -2.94012
C    -2.63528  -0.94622  -4.68912
H    -3.46753  -0.86817  -5.37301
C    -1.34124  -0.99322  -5.17862
H    -1.16524  -0.94788  -6.24345
C    -0.26671  -1.08913  -4.30943
H     0.74348  -1.10493  -4.69157
C     2.39206  -0.76623  -2.32963
C     3.02116  -1.49454  -3.33505
H     2.54212  -2.37403  -3.74431
C     4.26534  -1.09753  -3.78923
H     4.75392  -1.65480  -4.57530
C     4.88920   0.00911  -3.23379
H     5.86063   0.31407  -3.59413
C     4.27738   0.71661  -2.21153
H     4.77350   1.56892  -1.77168
C     3.03092   0.32781  -1.75565
H     2.52751   0.86909  -0.95453
O    -0.05586   1.21453  -1.11548
