34

Cu    0.00000   0.00000   0.00000
S     1.65422   4.31757   1.74184
P     1.00935   2.63379   1.06250
N    -0.15915   0.32358   1.91401
N     1.88374   0.41956  -0.26416
N    -0.81582   1.62699  -0.69351
C    -0.66367  -0.51850   2.80739
H    -1.04030  -1.45404   2.41601
C    -0.70557  -0.21825   4.15642
H    -1.12387  -0.92679   4.85294
C    -0.20289   1.00341   4.59204
H    -0.22070   1.26615   5.63880
C     0.32207   1.88020   3.65831
H     0.72678   2.84340   3.93497
C     0.32286   1.49631   2.32407
C     2.26338   1.60566   0.20991
C     2.77332  -0.34630  -0.88371
H     2.40762  -1.29740  -1.24697
C     4.08756   0.04770  -1.05497
H     4.78240  -0.60148  -1.56281
C     4.49073   1.28525  -0.56422
H     5.50955   1.62118  -0.68341
C     3.56124   2.08187   0.08199
H     3.81406   3.05219   0.48532
C    -0.34043   2.75656  -0.17025
C    -1.79227   1.68819  -1.59046
H    -2.13738   0.73972  -1.97980
C    -2.33570   2.89112  -2.00212
H    -3.12762   2.90186  -2.73348
C    -1.84535   4.07429  -1.45944
H    -2.24962   5.02886  -1.76011
C    -0.82678   4.00782  -0.52440
H    -0.40417   4.89160  -0.06786
O    -0.55249  -1.44173  -0.58194
