57

Ru    0.00000   0.00000   0.00000
Cl    1.90228   1.04367   1.00553
S    -0.61763   2.16106  -0.81667
P    -1.30705   0.53272   1.80094
C    -0.63600   0.93746   3.45160
C    -2.71403  -0.54900   2.23103
C    -2.16437   2.13020   1.38670
C    -2.31113   2.23293  -0.12019
C    -0.91363   2.17105  -2.57507
C    -0.04491   2.94686  -3.33410
C    -0.19137   2.99990  -4.70817
C    -1.21242   2.29245  -5.32261
C    -2.07812   1.52624  -4.55952
C    -1.93521   1.45834  -3.18395
H    -0.36163   0.01863   3.96752
H     0.25791   1.54634   3.32355
H    -1.38199   1.47914   4.03304
H    -3.33517  -0.07978   2.99368
H    -3.29391  -0.74611   1.33050
H    -2.32215  -1.49459   2.60469
H    -3.14052   2.17222   1.87803
H    -1.53952   2.95118   1.75555
H    -2.75363   3.17730  -0.44003
H    -2.87182   1.38418  -0.51500
H     0.73748   3.50288  -2.83841
H     0.48701   3.59871  -5.29769
H    -1.33066   2.33662  -6.39509
H    -2.86936   0.96694  -5.03566
H    -2.58039   0.81680  -2.60586
S     0.61774  -2.16050   0.81787
C     2.31061  -2.23398   0.12000
C     2.16281  -2.13116  -1.38678
P     1.30796  -0.53225  -1.80038
C     0.63721  -0.93506  -3.45160
H     0.36509  -0.01554  -3.96747
H    -0.25799  -1.54229  -3.32458
H     1.38257  -1.47805  -4.03265
C     2.71658   0.54790  -2.22924
H     3.33706   0.07855  -2.99237
H     3.29656   0.74322  -1.32840
H     2.32596   1.49444  -2.60185
H     3.13845  -2.17488  -1.87900
H     1.53625  -2.95111  -1.75504
H     2.75246  -3.17879   0.43939
H     2.87253  -1.38581   0.51431
C     0.91526  -2.16982   2.57606
C     0.04705  -2.94513   3.33621
C     0.19446  -2.99722   4.71022
C     1.21594  -2.28936   5.32347
C     2.08114  -1.52371   4.55925
C     1.93731  -1.45675   3.18374
H     2.58207  -0.81559   2.60477
H     2.87273  -0.96410   5.03444
H     1.33471  -2.33254   6.39593
H    -0.48367  -3.59545   5.30062
H    -0.73570  -3.50147   2.84149
O    -1.31222  -0.72055  -0.69382
