57

Ru    0.00000   0.00000   0.00000
Cl    0.06178   2.37411  -0.30109
S    -1.64573   0.08668   1.76085
S    -1.65036  -0.09035  -1.75616
P     1.47984   0.29818   1.70175
P     1.47572  -0.29377  -1.70624
C     2.75420   1.60076   1.56959
C     2.44483  -1.08774   2.40191
C     0.51156   0.83519   3.20198
C    -0.83982   1.38188   2.77839
C    -3.17672   0.89557   1.31513
C    -3.20253   2.05003   0.55064
C    -4.42384   2.61393   0.22614
C    -5.60296   2.02648   0.65361
C    -5.56661   0.86763   1.41133
C    -4.35166   0.29922   1.74771
C     2.43567   1.09485  -2.40789
C     2.75309  -1.59371  -1.57839
C     0.50463  -0.83177  -3.20421
C    -0.84370  -1.38276  -2.77668
C    -3.17867  -0.90470  -1.31153
C    -3.20093  -2.05669  -0.54323
C    -4.42033  -2.62657  -0.22201
C    -5.60097  -2.04743  -0.65660
C    -5.56817  -0.89072  -1.41771
C    -4.35511  -0.31629  -1.75063
H     3.25591   1.73745   2.52708
H     3.47900   1.30195   0.81289
H     2.27320   2.52432   1.25231
H     1.77485  -1.93004   2.56955
H     3.20469  -1.39067   1.68296
H     2.91609  -0.78503   3.33678
H     0.36844  -0.04730   3.83492
H     1.07466   1.58935   3.75802
H    -0.73099   2.27208   2.15544
H    -1.49258   1.58284   3.62932
H    -2.28219   2.49348   0.19629
H    -4.44955   3.51367  -0.37029
H    -6.55262   2.46969   0.39214
H    -6.48425   0.40439   1.74204
H    -4.30593  -0.60679   2.33278
H     3.19661   1.39871  -1.69062
H     2.90532   0.79405  -3.34412
H     1.76361   1.93582  -2.57317
H     2.27497  -2.51841  -1.26014
H     3.25239  -1.72894  -2.53738
H     3.47937  -1.29369  -0.82359
H     0.35678   0.05100  -3.83570
H     1.06815  -1.58362  -3.76294
H    -0.73032  -2.27271  -2.15414
H    -1.49856  -1.58560  -3.62553
H    -2.27930  -2.49378  -0.18424
H    -4.44346  -3.52456   0.37714
H    -6.54916  -2.49556  -0.39813
H    -6.48705  -0.43396  -1.75390
H    -4.31191   0.58816  -2.33831
O     0.04634  -1.63635   0.20670
