26

Cu    0.00000   0.00000   0.00000
S    -0.20182   1.91260   1.31085
C    -0.27416   3.17929   0.23305
N    -0.22406   4.47009   0.62377
H    -0.33743   4.73544   1.58592
C    -0.45318   5.37767  -0.48109
H     0.29804   6.17064  -0.49164
H    -1.44710   5.83600  -0.41474
C    -0.33826   4.44039  -1.69855
H    -1.15617   4.57082  -2.41011
H     0.61081   4.57485  -2.22873
N    -0.40080   3.12579  -1.09547
H    -0.24113   2.27673  -1.63136
S    -0.20184  -1.91261   1.31088
C    -0.27418  -3.17930   0.23307
N    -0.22406  -4.47009   0.62380
H    -0.33740  -4.73545   1.58595
C    -0.45318  -5.37768  -0.48106
H     0.29806  -6.17063  -0.49163
H    -1.44710  -5.83601  -0.41471
C    -0.33828  -4.44038  -1.69852
H    -1.15619  -4.57079  -2.41008
H     0.61078  -4.57480  -2.22872
N    -0.40084  -3.12581  -1.09543
H    -0.24117  -2.27673  -1.63133
O     0.26309   0.00042  -1.62889
