64

Ni    0.00000   0.00000   0.00000
S     0.68603   0.49063   2.06591
S    -1.87153  -0.38542   1.19053
P     1.88096   0.18045  -1.03572
N    -1.36115   0.16106   3.76258
C    -0.91665   0.10339   2.50632
C    -0.46960   0.63708   4.81674
H     0.54395   0.37645   4.48604
C    -0.55028   2.15785   4.95777
H    -0.37393   2.63336   3.99613
H    -1.52683   2.46253   5.32538
H     0.21014   2.49982   5.65464
C    -0.72778  -0.05312   6.15067
H    -0.74488  -1.13430   6.03293
H     0.07846   0.20039   6.83409
H    -1.66242   0.28090   6.59332
C     2.22242  -1.52030  -1.58669
C     1.64840  -2.52197  -0.80603
H     1.01705  -2.23325   0.04117
C     1.85428  -3.85189  -1.11258
H     1.40519  -4.62566  -0.50774
C     2.63252  -4.18806  -2.21020
H     2.79206  -5.22694  -2.45848
C     3.19276  -3.19568  -2.99680
H     3.78630  -3.46255  -3.85907
C     2.99182  -1.86011  -2.69003
H     3.41850  -1.08824  -3.31357
C     2.22789   1.25166  -2.46283
C     3.54839   1.46209  -2.85528
H     4.35622   1.00463  -2.30021
C     3.82443   2.26530  -3.94582
H     4.84904   2.42153  -4.25114
C     2.79134   2.87162  -4.64345
H     3.01207   3.49909  -5.49448
C     1.47985   2.67776  -4.24436
H     0.67441   3.15607  -4.78144
C     1.19573   1.87133  -3.15601
H     0.17464   1.70856  -2.84316
C     3.32066   0.55555   0.02534
C     3.42276   1.86141   0.49855
H     2.68232   2.58992   0.19214
C     4.45260   2.21687   1.34671
H     4.52915   3.23151   1.70929
C     5.38329   1.26655   1.73808
H     6.18800   1.54111   2.40419
C     5.27674  -0.03643   1.28234
H     5.99822  -0.77838   1.59279
C     4.24546  -0.39724   0.43210
H     4.16086  -1.41657   0.08212
C    -2.75600  -0.11655   4.05381
H    -2.81653  -0.78822   4.91207
H    -3.16816  -0.63818   3.18338
C    -3.55772   1.13484   4.30687
C    -3.61062   2.13383   3.34154
H    -3.08317   2.00285   2.40877
C    -4.33570   3.28871   3.56827
H    -4.36855   4.05885   2.81214
C    -5.02286   3.45543   4.75945
H    -5.59007   4.35706   4.93634
C    -4.98518   2.45999   5.72009
H    -5.52431   2.58109   6.64818
C    -4.25422   1.30597   5.49525
H    -4.23228   0.52998   6.24818
O    -0.63129  -0.36110  -1.48108
