24

Au    0.00000   0.00000   0.00000
Cl   -1.21293   1.63972   0.88530
N    -0.04418   0.79698  -1.88781
C    -0.42842   2.18221  -2.06723
H    -1.31330   2.37277  -1.45893
H    -0.66311   2.36183  -3.12117
C     0.34410   0.12247  -2.91569
H     0.27221   0.62247  -3.88257
O     1.05200  -1.56295  -0.60008
C     0.69779   3.10773  -1.61798
H     0.40464   4.13970  -1.78664
H     1.61009   2.90138  -2.17464
H     0.89137   2.97336  -0.55713
C     0.87296  -1.18934  -2.97633
C     1.12207  -1.73787  -4.25608
H     0.85624  -1.15163  -5.12391
C     1.67615  -2.97765  -4.41014
H     1.85181  -3.38174  -5.39450
C     2.02067  -3.72050  -3.27492
H     2.46356  -4.69848  -3.38959
C     1.79950  -3.22168  -2.01980
H     2.05940  -3.77916  -1.13412
C     1.21232  -1.95026  -1.82490
O     0.04750  -0.67853   1.50328
