37

Pd    0.00000   0.00000   0.00000
I     2.52901  -0.62828  -0.08901
S     0.59351   2.33003   2.13494
N     0.14473  -0.04276   2.91263
N    -0.22614  -0.59537  -1.89689
C     0.23693   0.68136   1.80090
C     0.34951   0.65472   4.09314
C     0.32596   0.20443   5.40989
H     0.12808  -0.82581   5.65074
C     0.56326   1.10557   6.42876
H     0.54520   0.75698   7.44981
C     0.82398   2.44687   6.16906
H     1.00495   3.12655   6.98666
C     0.85269   2.91320   4.87055
H     1.05284   3.94816   4.64471
C     0.61523   2.00967   3.84944
C    -0.15843  -1.47670   2.80688
H    -0.25803  -1.68040   1.71184
C    -1.50026  -1.80044   3.45721
H    -1.48156  -1.65163   4.53234
H    -1.75192  -2.83863   3.25752
H    -2.28208  -1.17263   3.03362
C     1.00206  -2.32033   3.32631
H     1.92403  -2.03965   2.82039
H     0.80375  -3.36779   3.11517
H     1.14569  -2.20636   4.39623
C    -0.54471  -1.81100  -2.32072
H    -0.68979  -2.57045  -1.55585
C    -0.68802  -2.10398  -3.66602
H    -0.94805  -3.10370  -3.97473
C    -0.49231  -1.09304  -4.59343
H    -0.59685  -1.28851  -5.64960
C    -0.15967   0.17579  -4.14100
H     0.00116   0.99046  -4.82885
C    -0.03620   0.38164  -2.77954
H     0.22515   1.36471  -2.37120
O    -1.62219   0.27965   0.11311
