49

Pd    0.00000   0.00000   0.00000
S     3.03400   0.07500  -1.07510
I    -0.90567  -0.23091  -2.43433
N     1.68013   2.21201  -0.88501
N    -1.57397  -1.02955   0.69078
C     1.57952   0.90203  -0.67490
C     2.90409   2.64309  -1.37241
C     3.33290   3.92742  -1.69445
H     2.68895   4.78253  -1.58165
C     4.61709   4.10389  -2.17008
H     4.94981   5.09950  -2.42011
C     5.48728   3.03131  -2.33330
H     6.48454   3.20131  -2.70722
C     5.08174   1.75014  -2.01923
H     5.73851   0.90336  -2.13711
C     3.79452   1.57347  -1.54265
C     0.52399   3.07122  -0.59533
H    -0.27494   2.38151  -0.22582
C     0.84015   4.05122   0.53069
H     1.18791   3.51106   1.40942
H    -0.06465   4.59038   0.79861
H     1.59929   4.77288   0.24544
C     0.00405   3.73469  -1.86732
H     0.70877   4.45395  -2.27283
H    -0.92590   4.25143  -1.64535
H    -0.19812   2.98081  -2.62603
C    -2.76528  -0.55494   1.03075
H    -2.91057   0.51759   0.92475
C    -3.77593  -1.37210   1.49538
H    -4.72202  -0.92575   1.75511
C    -3.56666  -2.74544   1.62186
C    -2.30743  -3.21780   1.25803
H    -2.05583  -4.26253   1.32280
C    -1.34843  -2.33415   0.80153
H    -0.35107  -2.68356   0.51024
C    -4.67783  -3.64154   2.12969
C    -5.87440  -3.52850   1.17396
H    -6.25360  -2.51131   1.12737
H    -6.67959  -4.17611   1.51233
H    -5.58691  -3.83244   0.16952
C    -5.08354  -3.17619   3.53562
H    -4.23043  -3.21842   4.20966
H    -5.86402  -3.82385   3.92755
H    -5.46149  -2.15757   3.52624
C    -4.25449  -5.11022   2.20745
H    -3.98232  -5.49343   1.22652
H    -5.08555  -5.70525   2.57900
H    -3.41795  -5.24228   2.89005
O     0.51262   0.26292   1.54615
