39

Pd    0.00000   0.00000   0.00000
I     2.53727   0.58253  -0.15534
S     0.67789  -2.28635   2.19609
N     0.15661   0.09641   2.89268
N     0.17750  -1.43571  -2.57679
H     0.35268  -1.66371  -1.59005
H     0.34322  -2.12870  -3.28275
C     0.27030  -0.66174   1.80530
C     0.38196  -0.55456   4.09564
C     0.34304  -0.06149   5.39655
H     0.11297   0.96961   5.60284
C     0.60669  -0.92036   6.44509
H     0.57623  -0.53851   7.45388
C     0.90919  -2.26077   6.23064
H     1.11004  -2.90683   7.07052
C     0.95385  -2.76929   4.94843
H     1.18610  -3.80455   4.75719
C     0.68942  -1.90811   3.89809
C    -0.18889   1.51703   2.74013
H    -0.29590   1.68468   1.63823
C     0.94801   2.41049   3.22777
H     0.71547   3.44552   2.99101
H     1.87477   2.14484   2.72172
H     1.10377   2.32941   4.29914
C    -1.54049   1.82181   3.37958
H    -2.30154   1.15387   2.97939
H    -1.82548   2.84351   3.14235
H    -1.51825   1.71297   4.45949
N    -0.29033   0.70102  -1.89260
C    -0.14786  -0.16533  -2.90541
C    -0.34505   0.24785  -4.23273
H    -0.22553  -0.46542  -5.03257
C    -0.68827   1.55629  -4.47652
H    -0.84541   1.89626  -5.48860
C    -0.83221   2.44199  -3.40954
H    -1.10025   3.47256  -3.56987
C    -0.62272   1.96542  -2.13516
H    -0.72103   2.61113  -1.26349
O    -1.59934  -0.39111   0.10787
