49

Re    0.00000   0.00000   0.00000
N     1.96715  -0.53190   1.20128
O     0.06350  -2.36686   0.49262
O     1.08001  -3.95628   1.68150
O     2.72739   1.51096  -0.64305
O     4.19713   2.30273   0.85360
C     0.06917   1.90139  -0.35188
O     0.10260   3.03844  -0.52144
C     0.93887  -0.42225  -1.64556
O     1.50459  -0.66162  -2.60992
C    -1.74074  -0.04514  -0.85071
O    -2.78901  -0.12619  -1.31280
C    -2.19874  -3.29398   0.60567
H    -2.62000  -2.52191  -0.03417
H    -2.75822  -4.21426   0.46030
H    -2.30003  -2.97560   1.64185
C    -0.73535  -3.52276   0.25106
H    -0.63457  -3.75348  -0.81668
C    -0.05777  -4.61048   1.13013
H    -0.73622  -4.89292   1.94972
C     0.38142  -5.84365   0.36170
H     0.89477  -6.52724   1.03213
H    -0.48710  -6.34154  -0.06021
H     1.06266  -5.56372  -0.43809
C     0.76498  -2.59751   1.69104
H     0.11198  -2.36684   2.56536
C     1.99703  -1.73216   1.78349
C     3.07855  -2.19649   2.51661
H     3.02969  -3.18370   2.94509
C     4.18049  -1.37531   2.66551
H     5.04171  -1.70313   3.22684
C     4.14757  -0.11908   2.08587
H     4.96481   0.57698   2.17305
C     3.02820   0.26132   1.36215
C     2.97814   1.63068   0.73051
H     2.16925   2.22056   1.22099
C     3.77038   2.36621  -2.62927
H     2.97568   1.93967  -3.23449
H     4.13949   3.26995  -3.10568
H     4.57637   1.64103  -2.55169
C     3.22671   2.69670  -1.25068
H     2.41012   3.42854  -1.33143
C     4.28814   3.20964  -0.24195
H     5.30185   3.10682  -0.64577
C     4.04293   4.64849   0.19462
H     4.77332   4.93390   0.94687
H     4.13551   5.31013  -0.66218
H     3.04681   4.75274   0.61811
O    -0.60374   0.18561   1.52432
