37

Re    0.00000   0.00000   0.00000
I    -1.43244   0.34480   2.28711
F     0.88972  -0.51832  -1.67291
N    -1.60973   0.67775  -1.26183
C    -1.30039   1.32761  -2.38847
H    -0.25291   1.52804  -2.56884
C    -2.24893   1.73390  -3.30710
H    -1.93446   2.25773  -4.19528
C    -3.58610   1.46716  -3.06241
H    -4.35228   1.77842  -3.75532
C    -3.90996   0.78852  -1.89786
H    -4.93302   0.55300  -1.65211
C    -2.89990   0.41371  -1.03436
H    -3.14349  -0.10870  -0.11905
N    -0.76950  -2.01862  -0.15174
C    -1.15407  -2.47810  -1.34527
H    -1.11148  -1.78619  -2.17588
C    -1.57786  -3.77664  -1.54980
H    -1.87666  -4.08788  -2.53798
C    -1.61020  -4.65444  -0.47732
H    -1.93827  -5.67422  -0.60373
C    -1.20568  -4.18158   0.76174
H    -1.20610  -4.81744   1.63224
C    -0.79534  -2.86842   0.87903
H    -0.48233  -2.48530   1.84102
N     1.70989  -0.77600   1.03702
C     2.39055  -1.79085   0.49594
H     2.00332  -2.20928  -0.42363
C     3.55456  -2.29357   1.04293
H     4.06172  -3.10925   0.55239
C     4.05196  -1.73322   2.20888
H     4.96159  -2.10085   2.65747
C     3.34834  -0.68230   2.77474
H     3.68633  -0.20196   3.67842
C     2.19447  -0.23648   2.16093
H     1.64265   0.58814   2.59108
O     0.66354   1.51028   0.03556
