52

Hg    0.00000   0.00000   0.00000
Cl   -0.60595  -2.02888  -0.81671
N     0.97814   0.87827  -2.18410
N    -0.55481   2.35200  -0.54432
N    -1.99795   0.95359   1.19464
C     0.88227   2.12321  -2.42726
C     0.26327   2.97142  -1.38693
C     0.52064   4.33867  -1.27667
H     1.19306   4.83624  -1.95576
C    -0.08260   5.04218  -0.24903
H     0.11082   6.09754  -0.12592
C    -0.92650   4.38200   0.62735
H    -1.38770   4.91799   1.44003
C    -1.14086   3.01422   0.44865
C    -1.98999   2.21641   1.35767
C     1.39188   2.79851  -3.66598
H     1.71974   2.06191  -4.39484
H     2.24058   3.43249  -3.41129
H     0.61758   3.42406  -4.10585
C    -2.79368   2.94225   2.39508
H    -3.50194   2.26271   2.86388
H    -3.33618   3.77127   1.94479
H    -2.13258   3.33705   3.16544
C     1.43785  -0.06912  -3.09956
C     2.55951  -0.85018  -2.78991
C     2.93406  -1.84526  -3.67872
H     3.79819  -2.45185  -3.44934
C     2.21756  -2.08376  -4.83921
H     2.52280  -2.87416  -5.50811
C     1.10441  -1.31563  -5.13136
H     0.53120  -1.50201  -6.02703
C     0.72057  -0.30486  -4.27139
H    -0.16501   0.28180  -4.47088
C     3.32875  -0.59695  -1.53297
H     2.68676  -0.77011  -0.66118
H     3.67323   0.43588  -1.48165
H     4.18683  -1.26018  -1.46237
C    -2.68356   0.06242   2.02289
C    -3.66436  -0.76773   1.46170
C    -4.28065  -1.70035   2.27985
H    -5.04073  -2.34301   1.85989
C    -3.93201  -1.83071   3.61411
H    -4.41906  -2.57338   4.22800
C    -2.95384  -1.01502   4.15558
H    -2.66835  -1.11755   5.19164
C    -2.33738  -0.06174   3.36732
H    -1.54890   0.56032   3.76588
C    -4.02689  -0.61946   0.01867
H    -4.80884  -1.32177  -0.25729
H    -3.14779  -0.81160  -0.59904
H    -4.36784   0.39380  -0.19532
O     0.99032   0.66356   1.14081
