41

Cd    0.00000   0.00000   0.00000
Br    1.18114  -2.13575  -0.67819
N    -1.95998  -1.03595   0.75535
N     0.14520  -0.76500   2.59846
N     1.84405   0.92447   1.10692
C    -3.07273  -0.97899   0.02985
H    -3.12675  -0.17768  -0.69860
C    -4.11435  -1.87539   0.18524
H    -5.00054  -1.79154  -0.42249
C    -3.98262  -2.88086   1.13225
H    -4.76597  -3.60935   1.27660
C    -2.82913  -2.93362   1.89285
H    -2.69259  -3.69876   2.64173
C    -1.83434  -1.98143   1.68228
C    -0.54914  -2.04294   2.47199
H    -0.75216  -2.48590   3.45878
H     0.10340  -2.73116   1.92256
C     1.59448  -0.90942   2.70096
H     1.88678  -1.80582   2.14238
H     1.90641  -1.04747   3.74711
C     2.39036   0.22195   2.09532
C     3.68923   0.46872   2.53444
H     4.10995  -0.12498   3.33161
C     4.42220   1.47663   1.93566
H     5.43194   1.68276   2.25719
C     3.83579   2.21666   0.91906
H     4.36877   3.01514   0.42918
C     2.54429   1.90103   0.53791
H     2.04348   2.44921  -0.25262
C    -0.44011   0.16487   3.48610
C    -1.78408   0.07406   3.85654
H    -2.40907  -0.72314   3.48885
C    -2.36078   1.01120   4.69352
H    -3.40430   0.90977   4.95323
C    -1.61866   2.06263   5.19830
H    -2.07161   2.79282   5.85034
C    -0.28408   2.15959   4.85030
H     0.31907   2.96908   5.23380
C     0.29952   1.22623   4.01431
H     1.34230   1.34913   3.77102
O    -0.54200   1.22595  -0.96218
