27

Mo    0.00000   0.00000   0.00000
F     1.44480  -0.20194  -1.13164
O     0.74512   0.74051   1.26571
O    -0.33337  -1.58189   0.30349
N    -0.94755  -0.25784  -2.10953
N     0.10365   2.00868  -1.17022
C    -1.45501  -1.39080  -2.53539
H    -1.43091  -2.20751  -1.82522
C    -1.99076  -1.53551  -3.82231
H    -2.39645  -2.48727  -4.12655
C    -1.99002  -0.46026  -4.67858
H    -2.39472  -0.53910  -5.67734
C    -1.45082   0.76293  -4.24202
C    -0.93662   0.80391  -2.92787
C    -0.33538   3.16860  -3.24498
C     0.23166   4.33096  -2.69283
H     0.28258   5.23328  -3.28508
C     0.71242   4.29525  -1.40559
H     1.15321   5.16927  -0.95312
C     0.62858   3.10376  -0.67248
H     0.99388   3.02436   0.34350
C    -0.37219   2.02108  -2.42342
C    -1.39737   1.94025  -5.04419
H    -1.79475   1.89093  -6.04712
C    -0.86350   3.09173  -4.56694
H    -0.82688   3.97880  -5.18173
O    -1.51381   0.63690   0.15883
