65

Fe    0.00000   0.00000   0.00000
Br   -1.60754   0.55237  -1.50571
N     1.54175  -0.25082  -1.23766
N     0.72361   1.63187   0.10643
N    -1.16215   0.78234   1.56173
O    -1.62698   2.74772   2.54226
C     3.23559   0.99304  -2.55543
H     3.57119   0.01247  -2.88380
H     4.08040   1.55332  -2.15981
H     2.84450   1.53505  -3.41724
C     2.15265   0.86536  -1.53218
C     1.70548   1.99288  -0.76885
C     2.18201   3.30015  -0.81467
H     2.94599   3.56494  -1.52744
C     1.66264   4.25106   0.04993
H     2.02624   5.26566   0.02493
C     0.65539   3.88947   0.93557
H     0.20548   4.59844   1.61078
C     0.20325   2.57975   0.93015
C    -0.87322   2.03398   1.70294
C    -2.64734   1.86524   3.01317
H    -3.61228   2.23902   2.66170
H    -2.63132   1.87946   4.10376
C    -2.29566   0.47934   2.41640
H    -3.10982   0.10290   1.78700
C    -1.95687  -0.60277   3.46038
H    -1.71529  -1.51047   2.90212
C    -3.16920  -0.89668   4.33896
H    -3.43702  -0.03992   4.95381
H    -2.94720  -1.73126   4.99897
H    -4.02839  -1.16366   3.72812
C    -0.73478  -0.22859   4.29462
H     0.12739  -0.06951   3.64910
H    -0.49830  -1.03828   4.97952
H    -0.90424   0.67383   4.87897
C     2.06586  -1.47863  -1.70759
C     3.05898  -2.10548  -0.93602
C     3.57438  -3.31248  -1.38158
H     4.34508  -3.80330  -0.80876
C     3.11511  -3.90095  -2.54444
H     3.52407  -4.84596  -2.86930
C     2.13172  -3.27921  -3.28658
H     1.77222  -3.74396  -4.19124
C     1.59953  -2.06029  -2.89025
C     0.52652  -1.39707  -3.71654
H     0.30959  -0.41467  -3.29107
C    -0.75517  -2.23000  -3.65844
H    -0.61725  -3.19007  -4.15002
H    -1.56738  -1.69614  -4.14461
H    -1.03873  -2.41230  -2.62459
C     0.97657  -1.18566  -5.16295
H     1.91084  -0.62794  -5.19915
H     0.21772  -0.62386  -5.70214
H     1.12454  -2.13401  -5.67327
C     3.58443  -1.48727   0.34130
H     2.91489  -0.66859   0.63904
C     4.98361  -0.90725   0.11395
H     5.67071  -1.69161  -0.19561
H     5.35888  -0.46424   1.03424
H     4.97134  -0.14110  -0.65688
C     3.62076  -2.49720   1.49028
H     2.66097  -2.99546   1.59098
H     3.84521  -1.98396   2.42302
H     4.38722  -3.24990   1.32783
O     0.01855  -1.53729   0.59907
