11

Au    0.00000   0.00000   0.00000
C     1.01959   0.00037   1.55075
C     2.45556   0.00023   3.66183
H     3.08421  -0.89710   3.70159
H     3.08421   0.89756   3.70159
C     1.53925   0.00023   4.89666
N     1.70270   0.00024   2.49182
F     2.27276   0.00023   6.01313
F     0.75272   1.07601   4.93298
F     0.75271  -1.07555   4.93298
O    -0.89374   0.00025  -1.38699
