58

C     1.79768  -0.22948   0.85636
C     3.04786  -0.32825   0.27007
H     3.17337  -0.08652  -0.77494
C     4.14654  -0.73167   1.01567
H     5.11817  -0.79008   0.54693
C     4.00810  -1.06688   2.35490
H     4.86799  -1.39052   2.92272
C     2.77215  -0.98520   2.96406
H     2.66772  -1.24480   4.00688
C     1.66717  -0.56243   2.22462
C     0.34539  -0.32333   2.78063
C    -0.04726  -0.59032   4.10451
H     0.62334  -1.10279   4.77533
C    -1.30847  -0.26038   4.53563
C    -2.15649   0.50551   3.68988
C    -3.38339   1.06662   4.09243
H    -3.73746   0.90381   5.09757
C    -4.11066   1.84019   3.22681
H    -5.05314   2.26032   3.54468
C    -3.62943   2.12181   1.94154
H    -4.19702   2.76595   1.28756
C    -2.43574   1.60085   1.52224
H    -2.02676   1.83861   0.54799
C    -1.68954   0.75826   2.36811
C    -1.70498  -0.69913   5.90398
C    -3.47890  -1.54657   7.19673
H    -2.71767  -2.08927   7.76588
H    -4.32337  -2.20050   6.97414
C    -3.91731  -0.30658   7.99458
H    -4.44176  -0.64112   8.90116
H    -3.03262   0.26831   8.27921
C    -5.99072   0.10756   6.89987
H    -6.43541  -0.44713   7.73569
H    -5.92945  -0.54649   6.01888
C    -6.87800   1.30728   6.58532
H    -6.26854   2.07841   6.09223
H    -7.68773   1.00674   5.90137
C    -8.15407   2.98254   7.61490
H    -9.00201   2.82776   6.93518
H    -7.52619   3.78865   7.21565
H    -8.52429   3.26415   8.59818
N    -0.51414   0.24553   1.92363
O    -0.96366  -0.68900   6.85345
O    -2.95746  -1.16136   5.93077
O    -4.70672   0.58210   7.25127
O    -7.41764   1.80012   7.78697
Pt    0.00000   0.00000   0.00000
C    -0.37496   0.91665  -3.19320
H    -1.43124   0.75271  -3.01383
H    -0.10793   0.74758  -4.23004
H    -0.08653   1.91961  -2.89310
C    -0.03776  -1.81189  -2.88331
H     0.47125  -2.62563  -2.37653
H     0.20913  -1.81641  -3.93856
H    -1.10707  -1.86920  -2.71841
O     1.95445  -0.12614  -2.58728
S     0.56691  -0.25413  -2.16689
O    -1.51634  -0.28637  -0.58412
