24

Pd    0.00000   0.00000   0.00000
S    -0.17169   0.39713  -2.29657
N    -1.97740   1.07183   0.03719
C    -2.81112   0.95705   1.06627
C    -4.14256   1.33206   0.98554
C    -4.62179   1.83402  -0.21415
C    -3.74970   1.95360  -1.28430
C    -2.42462   1.56975  -1.11822
C    -1.43351   1.72486  -2.23428
C    -1.25566  -1.03786  -2.59698
C     1.76398  -1.02313  -0.10950
H    -2.37878   0.54974   1.97485
H    -4.78702   1.22690   1.84306
H    -5.65515   2.12846  -0.31906
H    -4.08561   2.34540  -2.23231
H    -0.85201   2.63989  -2.08881
H    -1.92858   1.77053  -3.20588
H    -1.84813  -0.85787  -3.49081
H    -1.89859  -1.22462  -1.73386
H    -0.59877  -1.88943  -2.75465
H     1.53186  -2.09589  -0.03734
H     2.42653  -0.74752   0.71691
H     2.25539  -0.80789  -1.06703
O    -0.02857  -0.33171   1.61606
