69

Pd    0.00000   0.00000   0.00000
P     0.16417  -1.44394  -1.97208
P    -0.00976   1.58163   1.65596
C     1.69865  -0.97179  -1.23255
C     2.02208   0.00211  -0.47445
C     3.16038   0.63472   0.12384
C     3.34724   2.01517   0.04210
H     2.62992   2.62222  -0.49239
C     4.44166   2.60428   0.64256
H     4.57517   3.67442   0.57458
C     5.36043   1.83087   1.33291
H     6.21218   2.29562   1.80693
C     5.18332   0.45913   1.41457
H     5.89782  -0.14758   1.95138
C     4.09569  -0.14127   0.81401
H     3.95088  -1.21018   0.87959
C    -1.30185  -0.37275  -2.30395
C    -0.97966   0.97972  -2.48922
H     0.06916   1.26348  -2.60667
C    -1.99084   1.91924  -2.61367
H    -1.74682   2.96357  -2.75101
C    -3.31605   1.51643  -2.55775
H    -4.10368   2.25029  -2.64210
C    -3.63323   0.17732  -2.38875
H    -4.66668  -0.13158  -2.34422
C    -2.63530  -0.76996  -2.25090
H    -2.88942  -1.80516  -2.07480
C     0.73590  -1.64512  -3.70365
C     2.08798  -1.69487  -4.00588
H     2.80995  -1.56214  -3.20944
C     2.50231  -1.90451  -5.30908
H     3.55704  -1.93885  -5.54023
C     1.56482  -2.07019  -6.31452
H     1.88738  -2.23376  -7.33217
C     0.21175  -2.02401  -6.01673
H    -0.51986  -2.15308  -6.80100
C    -0.20236  -1.81100  -4.71569
H    -1.25798  -1.76607  -4.47905
C    -0.31842  -3.14108  -1.55645
H    -0.90416  -3.55259  -2.37938
H    -0.89210  -3.16694  -0.62739
H     0.60594  -3.71090  -1.44313
C     0.21962   3.35251   1.30275
C     0.29143   3.70981  -0.03892
H     0.20213   2.92590  -0.78692
C     0.45708   5.03103  -0.41067
H     0.51338   5.30043  -1.45578
C     0.55022   6.00930   0.56513
H     0.68438   7.04324   0.28306
C     0.46030   5.66402   1.90434
H     0.52132   6.43097   2.66301
C     0.28885   4.34267   2.27611
H     0.20556   4.08590   3.32251
C     1.36387   1.06594   2.74043
C     2.31333   1.89743   3.31571
H     2.28186   2.96320   3.14175
C     3.32085   1.35493   4.09533
H     4.06116   2.00527   4.53844
C     3.38575  -0.01131   4.30467
H     4.17253  -0.42631   4.91734
C     2.45208  -0.84900   3.71421
H     2.51144  -1.91738   3.86278
C     1.45234  -0.31468   2.92591
H     0.72790  -0.97293   2.43670
C    -1.39171   1.59932   2.85916
H    -1.55581   0.58244   3.21666
H    -2.29590   1.93605   2.35089
H    -1.16547   2.25569   3.69856
O    -1.29753  -0.81910   0.60662
