54

V     0.00000   0.00000   0.00000
Cl   -0.62538  -1.94743  -0.08758
Cl   -1.80143   0.94027   0.04998
O     0.80669   0.19749  -1.27388
O     0.58151   2.42182   0.45922
C     1.49761   4.61441   0.69279
C     1.27878   3.29204  -0.03180
C     1.79148   3.04010  -1.42829
C     0.54469   3.18632  -2.32365
C     0.22457   4.66134  -2.53915
C    -0.02753   5.42629  -1.23138
C     1.20633   5.73388  -0.35338
C     2.38123   6.16925  -1.23659
C     2.61966   5.25970  -2.43494
C     1.37620   5.29003  -3.31708
C     2.95552   3.82395  -2.03115
C     2.92455   4.63991   1.29490
C     3.18155   5.95254   2.04157
C     2.21135   6.09270   3.21015
C     0.78004   6.06306   2.67699
C     0.53620   4.75531   1.91216
C     0.71225   3.63557   2.94813
C     2.14906   3.62598   3.45790
C     2.43116   4.93873   4.18487
C     3.10060   3.47401   2.27322
H     3.07698   6.81021   1.37668
H     2.05717   1.97201  -1.42542
H    -0.29765   2.65611  -1.86769
H     0.74742   2.71425  -3.28651
H    -0.69277   4.72572  -3.13576
H    -0.47741   6.38493  -1.50520
H    -0.76952   4.88058  -0.64448
H     0.93742   6.61614   0.23064
H     2.14942   7.16805  -1.61878
H     3.29731   6.25951  -0.65694
H     3.47210   5.65859  -2.99790
H     1.13907   6.32148  -3.58601
H     1.54700   4.73390  -4.24059
H     3.81575   3.81301  -1.36099
H     3.25427   3.28607  -2.93504
H     3.66880   4.52969   0.50464
H     2.39099   7.04537   3.72136
H     4.20881   5.94699   2.41476
H     0.59728   6.94479   2.06115
H     0.07680   6.11242   3.51141
H    -0.49634   4.73557   1.54802
H     0.45680   2.66333   2.53296
H     0.02858   3.82538   3.77980
H     2.28893   2.78522   4.14555
H     1.76411   5.03972   5.04370
H     3.45857   4.95434   4.55589
H     4.13391   3.46256   2.62942
H     2.91274   2.52307   1.76734
O     0.92658  -0.05215   1.36427
