46

Ni    0.00000   0.00000   0.00000
N     1.54310  -0.75114  -0.60876
C     2.59848   0.04413  -0.80537
H     2.42860   1.11226  -0.73396
Cl   -0.97024  -0.02051  -1.81682
C     3.85635  -0.44974  -1.08758
H     4.67727   0.23062  -1.24369
N    -1.11644  -1.83641   1.00463
C     4.03226  -1.82308  -1.15531
H     5.00331  -2.24852  -1.35614
C     2.93021  -2.63691  -0.97147
H     3.02466  -3.70979  -1.03342
C     1.68185  -2.07967  -0.71319
C     0.46768  -2.95105  -0.59502
H    -0.26371  -2.58741  -1.32289
H     0.74101  -3.97385  -0.85463
C    -0.17061  -2.94412   0.80787
H    -0.67900  -3.90498   0.97426
H     0.62322  -2.84636   1.55427
C    -2.40592  -2.11849   0.32942
H    -2.20199  -2.45974  -0.68575
H    -2.94410  -1.16849   0.25573
C    -3.27428  -3.11855   1.04335
C    -3.41756  -4.41571   0.57377
H    -2.87635  -4.72597  -0.30977
C    -4.25798  -5.31034   1.21459
H    -4.35795  -6.31872   0.84097
C    -4.97432  -4.90750   2.32899
H    -5.63390  -5.60187   2.82832
C    -4.84539  -3.61513   2.80377
H    -5.39404  -3.30109   3.67980
C    -3.99306  -2.71448   2.17501
C    -3.82123  -1.34271   2.67398
C    -4.91601  -0.56328   3.02950
H    -5.91051  -0.97813   2.94890
C    -4.73831   0.74097   3.45348
H    -5.59582   1.34206   3.71857
C    -3.46340   1.27559   3.53135
H    -3.32286   2.29547   3.85726
C    -2.36515   0.50122   3.19723
H    -1.36963   0.91258   3.26948
C    -2.53155  -0.80561   2.76626
C    -1.34709  -1.67800   2.45862
H    -0.44621  -1.24000   2.89437
H    -1.51513  -2.66915   2.91066
O     0.69713   0.58789   1.37510
