66

Pd    0.00000   0.00000   0.00000
Cl   -1.35980   1.16836   1.40036
N    -2.32080  -1.59276  -0.88939
N    -1.65980  -2.24719   1.04733
N     0.87542  -1.36385  -2.47427
N     2.18461  -1.81416  -0.82540
C     5.06830  -1.17028   1.49485
C     4.77656  -1.92475   2.65210
H     3.81351  -2.39795   2.75893
C     5.68801  -2.04918   3.66369
H     5.43790  -2.62636   4.54194
C     6.94153  -1.42831   3.57603
H     7.65105  -1.54038   4.38276
C     7.25091  -0.67635   2.47853
H     8.20764  -0.17894   2.40473
C     6.32982  -0.51882   1.42204
C     6.63213   0.28822   0.30559
H     7.59263   0.78167   0.26706
C     5.71720   0.45907  -0.69191
H     5.93334   1.09986  -1.53333
C     4.47858  -0.19454  -0.63506
H     3.76822  -0.01917  -1.42779
C     4.15647  -1.01244   0.41626
C     2.82189  -1.72202   0.46408
H     2.94458  -2.73227   0.86486
H     2.13252  -1.14734   1.11729
C     1.11222  -1.09299  -1.17744
C     2.63206  -2.54042  -1.89896
H     3.48851  -3.17979  -1.84017
C     1.80879  -2.26021  -2.93646
H     1.81656  -2.61327  -3.94742
C    -0.11163  -0.66549  -3.26231
H     0.24908  -0.64014  -4.29386
H    -0.15871   0.36743  -2.87900
C    -1.51907  -1.28904  -3.23602
H    -2.00789  -1.02620  -4.17489
H    -1.43710  -2.37824  -3.19714
C    -2.42315  -0.79927  -2.08880
H    -2.15790   0.23828  -1.81922
H    -3.46621  -0.82150  -2.41369
C    -1.39130  -1.38391   0.05897
C    -3.17709  -2.58957  -0.49111
H    -4.00612  -2.91026  -1.08800
C    -2.75742  -3.00332   0.72772
H    -3.14829  -3.75590   1.38114
C    -0.85410  -2.33975   2.23409
H    -1.50042  -2.58021   3.08400
H    -0.41979  -1.33401   2.39296
C     0.25221  -3.36430   2.11548
C     0.41824  -4.10408   0.97246
H    -0.24098  -3.96402   0.12784
C     1.43991  -5.05955   0.86353
H     1.53892  -5.62022  -0.05447
C     2.29093  -5.27910   1.90769
H     3.07649  -6.01716   1.83652
C     2.16152  -4.53890   3.10220
C     3.03687  -4.74906   4.18855
H     3.80708  -5.50055   4.09054
C     2.91938  -4.01491   5.33445
H     3.59077  -4.18216   6.16367
C     1.92445  -3.03221   5.43777
H     1.84908  -2.44737   6.34201
C     1.05484  -2.80928   4.40596
H     0.30260  -2.04358   4.50632
C     1.13830  -3.55746   3.21114
O     1.12982   1.19606  -0.12429
