40

Pt    0.00000   0.00000   0.00000
S     0.06137  -1.41758   1.76781
O     0.22779  -0.77738   3.08211
O    -0.53287   3.53276  -1.93063
O    -0.35004   6.37007   4.07904
H    -1.10370   6.95713   3.94933
O    -2.18940   5.02098   5.42077
H    -1.56990   5.66129   5.80262
O     0.81237   3.55716   4.52508
O    -1.27783   1.47060   3.78194
H    -0.88973   0.60628   3.55771
N     0.11717   3.87352   1.03110
N     0.55394   3.44057   2.21716
N     0.44843   1.68919   0.97501
N    -0.24122   1.31338  -1.47184
H    -0.45741   1.09770  -2.44236
C     0.76384   2.12219   2.17785
H     1.15876   1.54247   2.98598
C     0.06319   2.80251   0.28372
C    -0.28619   2.61939  -1.16901
C     0.65092   4.31420   3.37860
H     1.51573   4.97874   3.26126
C    -0.65109   5.11780   3.51785
H    -1.12838   5.22536   2.53917
C    -1.48909   4.24672   4.49851
H    -2.22873   3.65488   3.95569
C    -0.44829   3.30847   5.15530
H    -0.32324   3.56742   6.21400
C    -0.85090   1.82744   5.07766
H     0.00487   1.22369   5.39250
H    -1.67463   1.67132   5.78747
C    -1.44928  -2.41503   1.89023
H    -1.55253  -2.97543   0.96813
H    -2.28662  -1.73455   2.01062
H    -1.36876  -3.06496   2.75396
C     1.26769  -2.77242   1.67811
H     1.09908  -3.28334   0.73676
H     1.12868  -3.43427   2.52480
H     2.26200  -2.33916   1.69991
O    -0.37690  -1.32793  -0.90390
