37

Ru    0.00000   0.00000   0.00000
Cl    0.93566  -2.21036   0.04557
C     0.88340   0.15433  -2.88643
C     1.61118  -0.69220  -3.75382
H     2.44013  -1.26115  -3.35890
C     1.21515  -0.83867  -5.05070
H     1.75220  -1.50538  -5.70952
C     0.10102  -0.13531  -5.55827
C    -0.32478  -0.26756  -6.89504
H     0.22368  -0.92687  -7.55224
C    -1.41221   0.42489  -7.35150
H    -1.73292   0.31858  -8.37721
C    -2.12338   1.27994  -6.49378
H    -2.97990   1.81653  -6.87366
C    -1.73674   1.43173  -5.19206
H    -2.27860   2.08456  -4.52414
C    -0.62022   0.72866  -4.68972
C    -0.21388   0.84804  -3.34977
H    -0.74495   1.51942  -2.68599
C     2.48395   0.45274  -1.21927
H     3.28140   0.51538  -1.95712
C     2.78367   0.60602   0.18280
C     4.06708   0.85070   0.67244
H     4.89775   0.90331  -0.01375
C     4.24367   1.01781   2.03236
H     5.22448   1.20357   2.44183
C     3.13069   0.94530   2.85880
H     3.22002   1.07600   3.92496
C     1.88769   0.69538   2.29823
H     1.00672   0.63615   2.92500
C    -1.02244  -0.31922   1.52352
C    -1.44311  -0.52542  -1.05262
N     1.25115   0.29641  -1.54737
N     1.71031   0.52342   0.99530
O    -1.63073  -0.53087   2.46224
O    -2.31397  -0.88384  -1.69223
O    -0.36757   1.60851  -0.00888
