70

Tc    0.00000   0.00000   0.00000
Cl   -1.38888  -1.81684   0.22609
Cl    0.44722   0.38508   2.17915
P    -1.12000   0.06306  -2.21730
P     1.78248  -1.48747  -0.37200
N    -1.71694   1.12751   0.03873
N     0.94048  -1.88253  -2.84001
C    -2.32259   0.95458  -1.15136
C    -3.62698   1.35217  -1.37815
H    -4.10623   1.12978  -2.32055
C    -4.30571   2.01083  -0.36091
H    -5.32415   2.33837  -0.50511
C    -3.65257   2.23283   0.84312
H    -4.14440   2.74543   1.65444
C    -2.36151   1.76278   1.00769
H    -1.82697   1.87827   1.94100
C    -0.65086   1.34590  -3.43313
C    -1.54648   2.30992  -3.88116
H    -2.55421   2.33798  -3.49423
C    -1.14800   3.24456  -4.82019
H    -1.84877   3.99342  -5.15986
C     0.14291   3.22493  -5.32044
H     0.45065   3.95837  -6.05102
C     2.07417  -1.70448  -2.16321
C     3.31767  -1.68022  -2.78292
H     4.21071  -1.51234  -2.20113
C     3.37412  -1.86095  -4.15586
H     4.32207  -1.82601  -4.67329
C     2.19793  -2.09520  -4.85037
H     2.20153  -2.25854  -5.91671
C     1.00516  -2.10162  -4.14092
H     0.05932  -2.28388  -4.63441
C     1.47251  -3.19448   0.17305
C     1.13884  -4.24741  -0.66657
H     1.07485  -4.09403  -1.73349
C     0.86551  -5.49373  -0.12816
H     0.60505  -6.31307  -0.78280
C     0.91519  -5.69054   1.24083
H     0.69689  -6.66441   1.65420
C     1.04058   2.26960  -4.87375
H     2.05226   2.25652  -5.25140
C     0.64718   1.33588  -3.93357
H     1.35374   0.60808  -3.56484
C    -2.23538  -0.96655  -3.22357
C    -2.16204  -0.95326  -4.61392
H    -1.44598  -0.31373  -5.11163
C    -3.01353  -1.74668  -5.36190
H    -2.95423  -1.72603  -6.44081
C    -3.93854  -2.56339  -4.73271
H    -4.60233  -3.18055  -5.32018
C    -4.00825  -2.58622  -3.34933
H    -4.72541  -3.22402  -2.85404
C    -3.16156  -1.79434  -2.59554
H    -3.20608  -1.82399  -1.51717
C     1.22956  -4.63460   2.08298
H     1.25111  -4.78269   3.15263
C     1.50348  -3.38966   1.55270
H     1.73070  -2.54966   2.19753
C     3.46160  -1.22195   0.28070
C     3.81544   0.04346   0.73401
H     3.08945   0.84302   0.69304
C     5.08475   0.26876   1.23788
H     5.35502   1.25227   1.59208
C     6.00350  -0.76580   1.29366
H     6.99247  -0.59096   1.69128
C     5.65388  -2.03014   0.84451
H     6.36988  -2.83804   0.89158
C     4.38796  -2.26135   0.34013
H     4.10947  -3.24869  -0.00415
O     0.80536   1.28459  -0.65093
