61

Au    0.00000   0.00000   0.00000
P     1.46137  -1.62726  -0.49366
C     2.03983  -2.56624   0.94296
C     2.30494  -1.83989   2.10085
H     2.15111  -0.76783   2.09875
C     2.75584  -2.48376   3.23624
H     2.96335  -1.91141   4.12869
C     2.93713  -3.86240   3.24431
C     3.41694  -4.57400   4.47033
H     3.60737  -3.87428   5.27942
H     4.33482  -5.12013   4.25660
H     2.67232  -5.29621   4.80249
C     2.65565  -4.58094   2.08594
H     2.78656  -5.65384   2.08380
C     2.21096  -3.94672   0.94235
H     1.99405  -4.51977   0.05161
C     0.83084  -2.89364  -1.62441
C     1.65716  -3.59920  -2.49476
H     2.71603  -3.38165  -2.52612
C     1.12607  -4.57239  -3.31708
H     1.77044  -5.11507  -3.98945
C    -0.23911  -4.85893  -3.28687
C    -0.81706  -5.89864  -4.14529
C    -0.30835  -6.03595  -5.51558
O    -0.88699  -6.99159  -6.30253
C    -1.87734  -7.80287  -5.87211
C    -2.38789  -8.73621  -6.75855
H    -2.00003  -8.79903  -7.76131
C    -3.40788  -9.59507  -6.35641
C    -3.90753  -9.51075  -5.04913
H    -4.69504 -10.16817  -4.71859
C    -3.39549  -8.58341  -4.17343
H    -3.78333  -8.51962  -3.16778
C    -2.37587  -7.70829  -4.56011
C    -1.80745  -6.71857  -3.70883
H    -2.17143  -6.64554  -2.69328
O    -3.84326 -10.46667  -7.29080
C    -4.87866 -11.36624  -6.96436
H    -4.58652 -12.03652  -6.15032
H    -5.05219 -11.95070  -7.86621
H    -5.79821 -10.83870  -6.69351
O     0.56879  -5.37100  -6.00792
C    -1.06243  -4.13809  -2.41940
H    -2.12623  -4.32425  -2.41118
C    -0.53429  -3.16409  -1.59830
H    -1.17441  -2.59399  -0.93655
C     2.98050  -1.06767  -1.30359
C     4.25812  -1.36188  -0.84488
H     4.39042  -1.96772   0.04109
C     5.35876  -0.87467  -1.52636
H     6.35098  -1.10641  -1.16597
C     5.20939  -0.09127  -2.66386
C     6.40195   0.41435  -3.41276
H     7.29433   0.38609  -2.79295
H     6.23863   1.43416  -3.75392
H     6.57693  -0.20660  -4.29167
C     3.92328   0.20572  -3.10882
H     3.79333   0.81879  -3.98876
C     2.81867  -0.26967  -2.43485
H     1.81825  -0.03124  -2.77437
O    -1.09063   1.17999   0.37502
