47

Pd    0.00000   0.00000   0.00000
Br    1.36244  -0.29652  -1.96359
P     1.01476   1.95753   0.50731
N     2.38893   3.42118   2.37435
N     0.73421   4.62675   1.06631
N     2.83376   3.95298   0.04526
C     1.85552   2.09198   2.16215
H     1.13435   1.86005   2.95610
H     2.67571   1.36366   2.21377
C    -0.04725   3.47834   0.65798
H    -0.51824   3.69087  -0.31091
H    -0.83838   3.29745   1.39655
C     2.37145   2.70314  -0.52181
H     3.21042   1.99918  -0.58665
H     2.00394   2.87813  -1.54062
C     1.34011   4.42838   2.37313
H     0.56486   4.13904   3.08719
H     1.78236   5.37809   2.68906
C     1.77512   4.94732   0.10287
H     1.32708   5.05152  -0.88898
H     2.22270   5.90264   0.39375
C     3.38725   3.77266   1.37713
H     3.85223   4.71534   1.68163
H     4.15260   2.99257   1.34434
P    -1.01531  -1.95754  -0.50733
C    -1.85608  -2.09153  -2.16219
N    -2.38956  -3.42067  -2.37464
C    -1.34082  -4.42794  -2.37357
N    -0.73494  -4.62661  -1.06678
C     0.04666  -3.47839  -0.65821
C    -2.37210  -2.70313   0.52165
N    -2.83448  -3.95284  -0.04563
C    -1.77592  -4.94726  -0.10343
H    -1.32791  -5.05167   0.88840
H    -2.22357  -5.90249  -0.39448
C    -3.38792  -3.77227  -1.37750
H    -3.85294  -4.71487  -1.68217
H    -4.15321  -2.99214  -1.34458
H    -3.21099  -1.99907   0.58652
H    -2.00463  -2.87828   1.54046
H     0.51759  -3.69117   0.31065
H     0.83782  -3.29746  -1.39673
H    -0.56553  -4.13852  -3.08756
H    -1.78312  -5.37756  -2.68970
H    -1.13492  -1.85949  -2.95611
H    -2.67623  -1.36315  -2.21362
O    -0.93393   0.20316   1.34499
