33

Pd    0.00000   0.00000   0.00000
N    -0.01264   1.28049   1.60530
H    -0.67883   2.01337   1.32191
C    -0.54192   0.64050   2.81321
H     0.19572  -0.08035   3.18377
H    -1.46375   0.10028   2.54283
C    -0.85257   1.65921   3.90280
H    -1.26776   1.17127   4.78201
H    -1.55242   2.41944   3.54854
S     0.67337   2.49162   4.45618
C     1.18148   3.08457   2.80757
H     0.45511   3.82633   2.46783
H     2.14812   3.56490   2.94298
C     1.28634   1.92173   1.82857
H     1.66121   2.29034   0.86027
H     1.98735   1.17529   2.21866
Br   -1.63759   1.48462  -1.04189
N     0.01323  -1.28005  -1.60566
H     0.67942  -2.01293  -1.32226
C     0.54251  -0.64005  -2.81357
H    -0.19513   0.08079  -3.18413
H     1.46434  -0.09982  -2.54319
C     0.85317  -1.65877  -3.90316
H     1.26835  -1.17083  -4.78237
H     1.55301  -2.41900  -3.54889
S    -0.67277  -2.49118  -4.45654
C    -1.18088  -3.08413  -2.80793
H    -0.45452  -3.82589  -2.46819
H    -2.14752  -3.56445  -2.94333
C    -1.28574  -1.92129  -1.82892
H    -1.66061  -2.28991  -0.86064
H    -1.98676  -1.17485  -2.21901
O     1.10620  -1.00213   0.70324
