65

Pt    0.00000   0.00000   0.00000
Cl   -0.31573  -1.57635  -1.64996
P    -0.41200   1.57907  -1.54614
C     0.13176   3.30226  -1.26309
C     0.43996   4.04113  -2.38571
H     0.55862   3.53728  -3.33466
C     0.57834   5.43161  -2.34143
H     0.84037   5.97088  -3.23930
C     0.30575   6.09202  -1.17894
H     0.31688   7.17135  -1.13908
C    -0.00002   5.38012  -0.00007
C    -0.00005   3.95295  -0.00010
C     0.14649   1.18816  -3.22227
C     1.51690   0.99013  -3.38273
H     2.17344   1.14400  -2.53400
C     2.01844   0.59062  -4.60496
H     3.07959   0.43258  -4.72932
C     1.15400   0.37512  -5.66817
H     1.54421   0.05106  -6.62153
C    -0.20864   0.55759  -5.50570
H    -0.88045   0.37400  -6.33130
C    -0.71917   0.96061  -4.28346
H    -1.78451   1.08356  -4.14976
C    -2.20803   1.83799  -1.64141
C    -2.77872   2.89443  -2.34557
H    -2.14634   3.60109  -2.86594
C    -4.15402   3.03405  -2.37646
H    -4.59829   3.85101  -2.92625
C    -4.96248   2.12949  -1.70501
H    -6.03589   2.24478  -1.73337
C    -4.39677   1.08002  -0.99944
H    -5.02711   0.37512  -0.47818
C    -3.02172   0.93428  -0.96543
H    -2.56124   0.10862  -0.42549
P     0.41198   1.57905   1.54585
C    -0.13186   3.30223   1.26288
C    -0.44003   4.04108   2.38552
H    -0.55869   3.53723   3.33447
C    -0.57842   5.43157   2.34128
H    -0.84041   5.97081   3.23917
C    -0.30580   6.09200   1.17881
H    -0.31690   7.17133   1.13898
C    -0.14646   1.18809   3.22199
C    -1.51692   0.99050   3.38255
H    -2.17345   1.14462   2.53387
C    -2.01848   0.59112   4.60482
H    -3.07968   0.43352   4.72927
C    -1.15402   0.37528   5.66794
H    -1.54428   0.05139   6.62133
C     0.20866   0.55729   5.50536
H     0.88046   0.37347   6.33090
C     0.71922   0.96019   4.28309
H     1.78460   1.08276   4.14928
C     2.20799   1.83810   1.64118
C     2.77858   2.89459   2.34534
H     2.14615   3.60125   2.86562
C     4.15388   3.03429   2.37629
H     4.59807   3.85133   2.92603
C     4.96242   2.12975   1.70494
H     6.03583   2.24511   1.73332
C     4.39681   1.08020   0.99939
H     5.02723   0.37531   0.47821
C     3.02178   0.93438   0.96531
H     2.56135   0.10867   0.42542
O     0.22572  -1.12980   1.18114
