21

Pd    0.00000   0.00000   0.00000
Cl    0.17461  -2.04396   1.04402
N     1.04997   0.86828   1.46752
N     1.18937   2.19697   1.49090
H     0.78043   2.72108   0.70301
C     1.68912   0.39359   2.53099
H     1.72763  -0.65767   2.74894
C     2.25292   1.44925   3.24925
H     2.82607   1.38309   4.14989
C     1.91195   2.58597   2.54751
H     2.13324   3.61639   2.73765
N    -1.05299  -0.86767  -1.46563
N    -1.19254  -2.19635  -1.48896
H    -0.78345  -2.72048  -0.70118
C    -1.69232  -0.39294  -2.52899
H    -1.73068   0.65833  -2.74701
C    -2.25608  -1.44858  -3.24731
H    -2.82915  -1.38242  -4.14799
C    -1.91513  -2.58532  -2.54558
H    -2.13634  -3.61574  -2.73579
O    -0.12804   1.46571  -0.74686
