50

Pd    0.00000   0.00000   0.00000
Cl    0.07342   1.85373   1.27333
P     0.08337  -2.07884  -0.86472
N     1.97783  -0.40509   0.42433
N     2.45560  -1.55509   0.92575
C     3.80894  -1.58811   0.82267
C     4.64565  -2.74529   1.22939
H     4.99555  -2.63479   2.25582
H     5.51864  -2.80011   0.58356
H     4.08607  -3.67522   1.15371
C     3.00274   0.31122  -0.00748
C     4.18627  -0.40381   0.22800
H     5.18278  -0.09638  -0.01308
C     2.80821   1.63458  -0.65320
H     1.77831   1.71234  -1.03309
H     3.51937   1.77082  -1.46486
H     2.94947   2.43087   0.07722
C     1.60056  -2.55603   1.42754
C     0.48984  -2.97690   0.67655
C    -0.32187  -3.97965   1.19640
H    -1.18131  -4.30759   0.62949
C    -0.03871  -4.55957   2.42064
H    -0.67893  -5.33888   2.80469
C     1.05352  -4.13234   3.15629
H     1.26587  -4.56819   4.12013
C     1.87121  -3.13095   2.66167
H     2.70692  -2.77350   3.24279
C     1.58853  -2.35041  -1.85435
C     2.36369  -3.50163  -1.77043
H     2.05003  -4.31480  -1.12869
C     3.53263  -3.59633  -2.50417
H     4.13716  -4.48911  -2.43764
C     3.92941  -2.54921  -3.32070
H     4.84468  -2.62806  -3.88802
C     3.15700  -1.40194  -3.40995
H     3.46858  -0.58758  -4.04667
C     1.99040  -1.30083  -2.67499
H     1.37275  -0.40549  -2.71708
C    -1.20639  -3.09030  -1.63616
C    -0.96169  -3.96806  -2.68613
H     0.03973  -4.08519  -3.07602
C    -2.01030  -4.68704  -3.23208
H    -1.82312  -5.37058  -4.04738
C    -3.29626  -4.52912  -2.74099
H    -4.10979  -5.09065  -3.17584
C    -3.54329  -3.64197  -1.70466
H    -4.54829  -3.50657  -1.33454
C    -2.50347  -2.91663  -1.15430
H    -2.68242  -2.19117  -0.37008
O    -1.56049   0.32653  -0.42515
