64

Ni    0.00000   0.00000   0.00000
P     1.54749  -0.79261   1.23504
N     1.39705   1.41663  -0.56901
C     1.12898   2.33013  -1.45022
H     0.14128   2.29523  -1.90119
C     2.04327   3.34596  -1.84325
C     1.67990   4.30548  -2.80195
H     0.69331   4.25598  -3.23774
C     2.56917   5.28241  -3.16909
H     2.29535   6.02294  -3.90515
C     3.83913   5.32161  -2.58732
H     4.53418   6.09424  -2.88145
C     4.21369   4.39180  -1.64760
H     5.20057   4.44809  -1.21604
C     3.32632   3.38068  -1.25139
C     3.63139   2.36495  -0.27588
C     2.63474   1.40801   0.02938
C     2.90340   0.39986   0.97919
C     4.12900   0.33253   1.60420
H     4.32483  -0.44879   2.32417
C     5.10841   1.27640   1.30606
H     6.06763   1.22442   1.79946
C     4.86403   2.26945   0.38706
H     5.64096   2.98601   0.17267
C     1.44317  -1.03964   3.02338
C     1.77371  -0.03583   3.92715
H     2.22578   0.88083   3.57279
C     1.51630  -0.20836   5.27490
H     1.77830   0.57123   5.97548
C     0.91085  -1.36971   5.72485
H     0.70133  -1.49554   6.77664
C     0.56258  -2.36492   4.82522
H     0.07798  -3.26464   5.17385
C     0.82140  -2.20083   3.47891
H     0.53542  -2.96337   2.76636
C     2.32765  -2.30572   0.59979
C     2.07534  -2.59676  -0.73727
H     1.40592  -1.94634  -1.29670
C     2.65619  -3.70132  -1.33037
H     2.45724  -3.92878  -2.36726
C     3.49009  -4.52056  -0.58581
H     3.94261  -5.38793  -1.04341
C     3.74068  -4.23470   0.74697
H     4.38787  -4.87923   1.32406
C     3.16473  -3.12756   1.34401
H     3.35134  -2.91084   2.38669
C    -1.18405  -1.27502   0.68818
C    -1.46398  -2.50835   0.15414
H    -1.09369  -2.79374  -0.82225
C    -2.25584  -3.42702   0.86589
H    -2.46595  -4.38718   0.41548
C    -2.73999  -3.12829   2.10790
H    -3.33090  -3.84747   2.65762
C    -2.47608  -1.87306   2.69307
C    -1.70828  -0.92870   1.96345
C    -1.45302   0.33584   2.53703
H    -0.89748   1.06840   1.94112
C    -1.90171   0.64520   3.78897
H    -1.69716   1.61292   4.22412
C    -2.64071  -0.29791   4.51964
H    -2.98794  -0.04391   5.51104
C    -2.92848  -1.52069   3.98114
H    -3.51004  -2.24168   4.53920
O    -1.18987   0.44018  -1.05497
