56

Fe    0.00000   0.00000   0.00000
I     2.49289  -0.00086  -0.62334
O     0.41083   2.85953   0.44821
O    -2.77150  -0.00003   0.81528
N    -0.87005   1.07162  -2.68661
C    -1.68162   0.00035   0.47180
C     0.17925   1.78495   0.15504
C    -0.58169   0.00007  -1.91769
C    -1.33116   0.67559  -3.91428
H    -1.62154   1.38272  -4.66375
C    -0.72935   2.44355  -2.33376
C     0.42988   3.12305  -2.72492
C     0.57401   4.44373  -2.33527
H     1.47687   4.97150  -2.60421
C    -0.40790   5.10131  -1.60405
C    -1.57941   4.42393  -1.30405
H    -2.36917   4.93019  -0.76847
C    -1.76447   3.09631  -1.66509
C    -3.06278   2.42314  -1.33660
H    -3.09045   1.39071  -1.67671
H    -3.88407   2.96098  -1.80910
H    -3.23738   2.43933  -0.26198
C     1.48659   2.44829  -3.54068
H     2.17988   3.18314  -3.93919
H     1.05181   1.89231  -4.37011
H     2.05788   1.74806  -2.93236
C    -0.19690   6.51047  -1.15074
H    -1.14385   7.00063  -0.93985
H     0.34303   7.08291  -1.90140
H     0.39793   6.51249  -0.23728
O     0.41165  -2.85951   0.44802
N    -0.86954  -1.07145  -2.68689
C     0.18080  -1.78502   0.15403
C    -1.33085  -0.67533  -3.91446
H    -1.62090  -1.38238  -4.66412
C    -0.72891  -2.44337  -2.33405
C     0.43014  -3.12312  -2.72533
C     0.57408  -4.44379  -2.33554
H     1.47680  -4.97176  -2.60454
C    -0.40780  -5.10109  -1.60403
C    -1.57914  -4.42347  -1.30391
H    -2.36887  -4.92950  -0.76807
C    -1.76403  -3.09588  -1.66511
C    -3.06214  -2.42240  -1.33645
H    -3.08966  -1.39001  -1.67667
H    -3.88364  -2.96011  -1.80871
H    -3.23651  -2.43844  -0.26179
C     1.48691  -2.44859  -3.54120
H     2.18046  -3.18352  -3.93912
H     1.05220  -1.89319  -4.37106
H     2.05788  -1.74786  -2.93314
C    -0.19697  -6.51019  -1.15046
H    -1.14398  -7.00021  -0.93954
H     0.34296  -7.08282  -1.90097
H     0.39779  -6.51211  -0.23696
O     0.22630  -0.00092   1.63441
