27

I    -1.23605   0.55750   2.16808
Fe    0.00000   0.00000   0.00000
O     1.58964   2.40681   0.31887
O    -1.61878   1.96254  -1.39619
N    -1.11288  -1.60469  -0.24450
N     1.13246  -1.29484   0.95705
C     1.00810   1.43210   0.22459
C    -1.02502   1.15114  -0.86117
C    -2.27698  -1.65987  -0.88348
H    -2.64364  -0.73107  -1.29623
C    -3.00096  -2.82728  -1.02791
H    -3.94051  -2.81495  -1.55522
C    -2.49256  -3.99809  -0.48414
H    -3.02843  -4.92952  -0.57845
C    -1.28392  -3.94897   0.18338
H    -0.86592  -4.84246   0.61603
C    -0.61238  -2.73328   0.29056
C     0.66552  -2.55660   0.97578
C     1.36581  -3.58188   1.60725
H     0.97609  -4.58604   1.61132
C     2.56634  -3.29829   2.22946
H     3.12418  -4.07792   2.72404
C     3.03694  -1.99334   2.20530
H     3.96696  -1.72324   2.67760
C     2.28748  -1.02988   1.55880
H     2.62549  -0.00432   1.52076
O     0.79734  -0.31734  -1.40927
