58

I     2.21419   1.36245   0.35327
Fe    0.00000   0.00000   0.00000
O     0.64680   0.72232  -2.75792
O     0.60496  -0.63053   2.78966
O    -1.20091   2.55336   0.61485
C    -0.93746   1.10702  -6.44640
H    -1.58692   1.90730  -6.79344
H    -0.90788   0.31959  -7.19523
H     0.06936   1.51207  -6.34247
N    -2.51754  -0.86833  -1.34223
N    -2.53305  -1.38178   0.75400
C     0.25346   0.41478  -1.73534
C     0.22717  -0.43216   1.73472
C    -0.75120   1.53184   0.36945
C    -1.81022  -0.82146  -0.21447
C    -2.18182  -1.54209   2.12146
C    -2.44212  -0.50614   3.02355
C    -2.07809  -0.67551   4.35014
H    -2.25914   0.13034   5.04673
C    -1.47928  -1.84582   4.79555
C    -1.28326  -2.87756   3.88956
H    -0.83585  -3.80247   4.22268
C    -1.63598  -2.75383   2.55393
C    -3.10727   0.77075   2.60426
H    -4.09309   0.84199   3.06460
H    -3.22578   0.83603   1.52553
H    -2.52632   1.62838   2.93883
C    -1.04081  -1.98355   6.21874
H    -0.02734  -1.59628   6.32574
H    -1.03649  -3.02633   6.52597
H    -1.68879  -1.41690   6.88328
C    -1.42580  -3.91454   1.63203
H    -0.41219  -4.29641   1.73317
H    -1.57694  -3.64838   0.59066
H    -2.11257  -4.72058   1.89158
C    -3.83700  -1.47491  -1.17596
H    -3.93566  -2.34467  -1.83126
H    -4.61361  -0.75260  -1.44629
C    -3.84792  -1.83864   0.30767
H    -4.63088  -1.32100   0.87059
H    -3.95217  -2.91259   0.48495
C    -3.06660   1.89839  -2.00158
H    -2.47793   2.80710  -1.88885
H    -3.20962   1.45768  -1.01808
H    -4.04161   2.18558  -2.39607
C    -2.14518  -0.38249  -2.62455
C    -1.39456  -2.71833  -3.27161
H    -2.08557  -3.30924  -3.87341
H    -1.55026  -2.95816  -2.22451
H    -0.38310  -3.02035  -3.53449
C    -1.59093  -1.26212  -3.55851
C    -2.39269   0.95406  -2.95172
C    -1.21700  -0.75898  -4.79571
H    -0.76350  -1.42924  -5.51103
C    -1.39937   0.57541  -5.12704
C    -2.00687   1.41265  -4.20146
H    -2.17739   2.44999  -4.45095
O     0.73032  -1.43856  -0.34592
