61

Ru    0.00000   0.00000   0.00000
Cl    0.84085  -0.14422  -2.18648
N    -0.03605   1.90390   0.12065
N    -0.82128   2.42322   1.01227
N    -0.93858   0.24786   1.75415
N     1.74494  -0.43444   0.65879
N     2.19374  -1.63283   0.48400
N     0.01773  -2.04028  -0.11459
C     1.70835   2.62091  -1.39323
H     2.34473   1.81811  -1.05634
C     2.14175   3.48880  -2.37640
H     3.11362   3.34143  -2.82222
C     1.33630   4.53539  -2.79637
H     1.67717   5.20031  -3.57590
C     0.09037   4.72752  -2.21729
H    -0.54087   5.53924  -2.54703
C    -0.35262   3.87581  -1.22786
H    -1.33023   3.98756  -0.78390
C     0.44775   2.80296  -0.81909
C    -1.32256   1.53380   1.88152
C    -2.20205   1.95584   2.92626
C    -2.60659   3.29148   3.06668
H    -2.22494   4.01813   2.36775
C    -3.46885   3.64118   4.07451
H    -3.78476   4.66751   4.18549
C    -3.94981   2.67366   4.96532
H    -4.63082   2.96749   5.75033
C    -3.56489   1.36321   4.84624
H    -3.93481   0.61347   5.53005
C    -2.68276   0.97380   3.82391
C    -2.24939  -0.36439   3.64176
H    -2.59909  -1.13527   4.31003
C    -1.40168  -0.67212   2.61986
H    -1.05772  -1.68629   2.45538
C     2.31912   1.47514   2.03606
H     1.31296   1.50083   2.43268
C     3.25123   2.40758   2.44737
H     2.96008   3.17975   3.14334
C     4.55293   2.35367   1.97332
H     5.27292   3.09295   2.28949
C     4.92955   1.34582   1.09944
H     5.94432   1.29747   0.73431
C     4.01045   0.40151   0.68817
H     4.27606  -0.38109  -0.00573
C     2.68910   0.47357   1.13741
C     1.27086  -2.50094   0.02980
C     1.61165  -3.86468  -0.21543
C     2.92039  -4.35074  -0.07214
H     3.68941  -3.66558   0.24680
C     3.19202  -5.66781  -0.33706
H     4.19732  -6.04678  -0.22967
C     2.17148  -6.53476  -0.75163
H     2.40665  -7.56862  -0.95771
C     0.88735  -6.08146  -0.89710
H     0.09836  -6.74553  -1.21817
C     0.57536  -4.73457  -0.63366
C    -0.72701  -4.19894  -0.77186
H    -1.53592  -4.83334  -1.09804
C    -0.95415  -2.87701  -0.50769
H    -1.93502  -2.43207  -0.61844
O    -1.51904   0.12012  -0.63293
