39

Zn    0.00000   0.00000   0.00000
Cl   -1.79906   0.49162   1.34586
Cl    1.03631  -1.95361  -0.11029
N    -0.16905   4.50210   0.89927
H    -0.54500   4.85544   1.76798
N    -1.84578   5.75760  -0.13770
N    -0.05892   4.93622  -1.37202
N     1.52546   1.23520   1.07099
C    -0.70435   5.05620  -0.22268
C    -2.68831   5.67338   1.04008
H    -2.68903   4.66210   1.44730
H    -3.70990   5.91371   0.75283
H    -2.37500   6.38340   1.81057
C    -2.40457   6.50918  -1.24896
H    -2.71624   7.49098  -0.87800
H    -3.29535   5.98256  -1.61126
C    -1.39904   6.66090  -2.37902
H    -1.90530   6.99867  -3.28128
H    -0.63919   7.39778  -2.11240
C    -0.72967   5.31047  -2.60001
H    -1.46205   4.54219  -2.86604
H     0.01059   5.36069  -3.39696
C     1.25832   4.35461  -1.48721
H     1.76523   4.38353  -0.52738
H     1.82981   4.93466  -2.21106
H     1.17597   3.31770  -1.83328
C    -0.00232   3.04783   0.89695
H    -0.18724   2.67271  -0.11496
H    -0.76946   2.56587   1.52001
C     1.32485   2.52723   1.33545
C     2.28355   3.29389   1.98663
H     2.09363   4.33778   2.18499
C     3.47168   2.69707   2.37399
H     4.23127   3.27133   2.88406
C     3.66433   1.35266   2.10053
H     4.57218   0.84744   2.38706
C     2.65871   0.66090   1.44472
H     2.75254  -0.38812   1.20045
O    -0.08519   0.96206  -1.33779
