31

Cd    0.00000   0.00000   0.00000
Cl   -0.68949  -0.26362   2.27308
S     0.54171  -1.28965  -2.27055
S    -1.71720   1.87694  -0.86521
N    -0.69361   4.16781  -0.19653
H    -0.73274   4.28760  -1.19741
N    -1.04767   2.70305   1.55888
H    -0.53592   3.30575   2.18462
H    -1.18142   1.73251   1.87543
N     0.18643  -0.13944  -4.55643
H    -0.18367  -1.05504  -4.76312
N     1.08742   1.22963  -2.92510
H     1.06468   2.01621  -3.55198
H     1.41184   1.39196  -1.96027
C    -1.07299   2.97371   0.25953
C     0.03121   5.16449   0.56752
H     0.93356   4.70692   0.99243
H    -0.60343   5.52686   1.38463
C     0.42046   6.32186  -0.33649
H     0.94638   7.07921   0.23772
H    -0.46391   6.77517  -0.77812
H     1.07750   5.97597  -1.13066
C     0.60175   0.05534  -3.30163
C     0.16913   0.84999  -5.61436
H     1.18121   1.24870  -5.75621
H    -0.49721   1.67639  -5.33480
C    -0.31690   0.21217  -6.90542
H    -0.32548   0.94901  -7.70360
H    -1.32594  -0.17334  -6.78210
H     0.33947  -0.60421  -7.19656
O     1.18516   1.14782   0.02051
