37

C     1.35338  -2.15364   2.56226
H     1.33376  -3.18267   2.90928
H     0.48055  -1.98410   1.90695
H     1.26255  -1.49090   3.42474
C     2.60604  -1.87795   1.78788
C     3.64693  -2.78807   1.69797
H     3.58348  -3.71893   2.24142
C     4.74777  -2.52382   0.90173
H     5.55023  -3.24316   0.83980
C     4.80505  -1.36307   0.15051
H     5.64143  -1.18647  -0.50922
C     3.78368  -0.42846   0.21539
C     3.75000   0.79452  -0.64931
H     2.77093   0.85414  -1.14353
H     4.52384   0.74849  -1.41012
H     3.89046   1.70440  -0.06363
C     2.70996  -0.68324   1.07058
C     1.62721   1.23225   1.94276
C     2.70365   1.61272   2.90595
H     3.51745   0.89404   2.84768
H     2.31395   1.62839   3.92350
H     3.08897   2.60536   2.67341
C     0.11180   3.13223   2.57996
H     0.74605   3.61787   3.29141
C    -1.13251   3.44548   2.15288
H    -1.77251   4.25654   2.43502
C    -2.78465   2.50644   0.55305
H    -2.92554   3.44592   0.01790
H    -3.59057   2.38450   1.27805
H    -2.79817   1.67161  -0.15534
C    -0.53943   1.60439   1.05115
N     1.64505   0.23316   1.13774
N     0.47468   1.99400   1.89453
N    -1.51248   2.50807   1.22487
Pd    0.00000   0.00000   0.00000
Cl   -1.86321  -0.18570  -1.18846
O     0.62336  -1.28038  -0.83339
