65

C    -1.45892   1.03125  -0.80508
Cl    1.81411  -0.87652   1.00805
N    -0.64125   1.08655   1.61308
Pd    0.00000   0.00000   0.00000
C    -3.01189   2.64459  -0.55913
H    -3.64440   3.34583  -0.05638
N    -2.11397   1.82953   0.09825
C    -2.88591   2.36073  -1.87511
H    -3.38537   2.78308  -2.72303
N    -1.92864   1.38337  -2.00711
C    -1.40970   0.90734  -3.24306
C    -2.19713   0.08902  -4.04828
C    -3.55619  -0.34707  -3.59008
C    -1.67287  -0.34446  -5.25552
H    -2.26882  -0.98843  -5.88574
C    -0.39361   0.01047  -5.65666
C     0.17306  -0.49751  -6.94577
H    -0.61709  -0.77709  -7.63819
H     0.78261  -1.37963  -6.75073
H     0.80815   0.25147  -7.41353
C     0.37232   0.81324  -4.82275
H     1.37781   1.07384  -5.11823
C    -0.11123   1.26954  -3.60763
C     0.75421   2.09225  -2.70030
H     1.62578   2.45651  -3.23733
H     1.11201   1.46357  -1.86158
H     0.21174   2.94552  -2.28985
C    -1.69106   1.79666   1.41363
C    -2.44408   2.58864   2.43353
H    -1.99454   2.44632   3.41332
H    -3.48705   2.27449   2.46858
H    -2.41826   3.64893   2.18084
C    -0.06489   0.86260   2.87390
C    -0.65040  -0.05936   3.75463
C    -1.88156  -0.83626   3.33491
H    -2.53390  -0.17907   2.74634
C    -1.45846  -2.00995   2.43964
H    -0.97650  -1.65614   1.50807
H    -2.32683  -2.60746   2.16780
H    -0.74592  -2.64193   2.96491
C    -2.70453  -1.34893   4.51688
H    -2.18957  -2.15554   5.03141
H    -3.65545  -1.73761   4.15797
H    -2.90592  -0.54927   5.22710
C    -0.01189  -0.29003   4.96334
H    -0.42248  -1.00248   5.66001
C     1.15491   0.37627   5.29111
H     1.62822   0.18835   6.24330
C     1.73297   1.25688   4.39723
H     2.65838   1.74483   4.65661
C     1.14617   1.50075   3.16534
C     1.76869   2.42913   2.14714
H     1.39199   2.13810   1.14876
C     1.35119   3.87563   2.42660
H     0.26801   3.98291   2.40147
H     1.78177   4.54323   1.68334
H     1.70143   4.18266   3.41016
C     3.28937   2.29933   2.10041
H     3.75420   2.68034   3.00616
H     3.67977   2.86467   1.25671
H     3.55770   1.25413   1.97112
H    -3.48741  -0.78244  -2.59367
H    -3.96102  -1.09475  -4.26602
H    -4.25245   0.49088  -3.54893
O     0.23287  -1.01190  -1.28231
