68

Pd    0.00000   0.00000   0.00000
N    -0.83166  -1.53687  -1.40395
N     0.07672  -0.05696  -2.82863
N     0.76360   1.92305  -2.31211
C     0.41797   0.74476  -1.76464
C    -0.50188  -1.29876  -2.61078
C     1.22050   1.18361   1.14586
H     1.93318   1.78816   0.57690
H     1.77495   0.48616   1.78552
H     0.62844   1.83983   1.79092
C    -0.68867  -2.20839  -3.78611
H    -1.03960  -3.17796  -3.43922
H     0.25051  -2.33335  -4.32395
H    -1.42610  -1.79730  -4.47595
C    -1.23700  -4.78778   0.23159
H    -0.64700  -5.53555   0.73703
C    -0.62671  -3.64212  -0.25597
C    -1.42507  -2.71078  -0.93017
C     0.67771   1.86389  -3.68401
H     0.90776   2.70569  -4.30445
C    -2.59846  -4.97793   0.09371
H    -3.05831  -5.87464   0.48228
C     0.25431   0.62593  -4.01494
H     0.05561   0.19560  -4.97402
C     1.07468   3.10167  -1.58369
C    -3.63147  -1.72531  -1.61339
H    -3.12823  -1.36474  -2.52031
C     1.66895   5.42635  -0.19062
C     2.63884   4.79507  -0.95375
H     3.63623   5.20806  -0.99782
C    -3.38399  -4.01024  -0.50757
H    -4.45025  -4.15920  -0.56156
C     0.07624   3.70917  -0.81566
C     0.39788   4.86969  -0.13068
H    -0.35884   5.35036   0.47180
C     2.36224   3.63020  -1.65448
C    -2.81579  -2.86043  -1.03034
C     0.85346  -3.38138  -0.07131
H     1.03160  -2.28516  -0.14799
C     1.97430   6.67996   0.56945
H     3.01042   6.97811   0.43326
H     1.79184   6.52846   1.63217
H     1.33045   7.49232   0.23464
C     3.43371   2.93661  -2.44205
H     3.39517   1.86119  -2.27484
H     4.41413   3.29939  -2.14588
H     3.31512   3.11834  -3.51036
C    -1.29634   3.11790  -0.71359
H    -1.97714   3.81776  -0.23709
H    -1.26223   2.19660  -0.10010
H    -1.68963   2.85841  -1.69706
C     1.65745  -4.08498  -1.16814
H     2.71968  -3.88319  -1.04625
H     1.35380  -3.74537  -2.15711
H     1.50215  -5.16127  -1.11448
C     1.34153  -3.80022   1.31481
H     2.36789  -3.46719   1.45708
H     1.31490  -4.87953   1.44459
H     0.71950  -3.33250   2.07415
C    -3.67442  -0.57256  -0.60148
H    -2.66272  -0.23526  -0.33680
H    -4.16136  -0.89994   0.31395
H    -4.22488   0.27299  -1.01085
C    -5.05036  -2.12777  -2.00915
H    -5.03982  -2.99426  -2.66753
H    -5.53103  -1.30408  -2.53386
H    -5.64804  -2.35799  -1.13108
O    -0.60641  -0.64314   1.39325
