62

Pt    0.00000   0.00000   0.00000
Cl   -1.18625   0.56056   1.89357
P    -1.87608  -1.21470  -0.39998
P     1.22132  -0.58568  -1.79868
C    -3.34961  -0.18272  -0.60680
C    -4.62793  -0.73160  -0.65615
H    -4.75922  -1.79925  -0.54311
C    -5.72134   0.09476  -0.83728
H    -6.71539  -0.32695  -0.86567
C    -5.54498   1.46305  -0.97743
H    -6.40356   2.10394  -1.11272
C    -4.27262   2.00990  -0.94024
H    -4.13779   3.07579  -1.04724
C    -3.17535   1.18805  -0.75763
H    -2.17075   1.59930  -0.70311
C    -2.27403  -2.37946   0.92991
C    -3.19883  -2.06839   1.92066
H    -3.73268  -1.13059   1.88094
C    -3.41083  -2.95074   2.96456
H    -4.12983  -2.70706   3.73253
C    -2.69648  -4.13544   3.03470
H    -2.86233  -4.81886   3.85424
C    -1.75592  -4.43665   2.06270
H    -1.18413  -5.35090   2.12609
C    -1.53982  -3.55994   1.01621
H    -0.78943  -3.77939   0.26750
C    -1.97236  -2.32868  -1.90362
H    -2.46847  -3.25577  -1.59587
C    -2.67273  -1.75679  -3.15175
H    -2.86965  -0.68733  -3.08491
H    -3.60554  -2.27707  -3.36053
C    -1.60811  -2.05881  -4.25119
H    -1.98963  -2.18759  -5.25943
C    -0.53641  -1.02059  -4.01945
H    -0.40216  -0.12776  -4.59781
C     0.10250  -1.42595  -2.91914
C    -0.59518  -2.72170  -2.52417
H    -0.00531  -3.44052  -1.96034
C     2.53067  -1.80575  -1.54297
C     2.99446  -2.58282  -2.60195
H     2.57225  -2.44969  -3.58925
C     3.98320  -3.52232  -2.37644
H     4.34762  -4.12651  -3.19431
C     4.50474  -3.69108  -1.10223
H     5.27722  -4.42663  -0.93264
C     4.03582  -2.92485  -0.04730
H     4.44031  -3.06349   0.94410
C     3.04623  -1.98218  -0.26395
H     2.66672  -1.37181   0.54646
C     1.89726   0.76445  -2.79179
C     1.05741   1.85747  -2.98923
H     0.06863   1.84547  -2.54221
C     1.49744   2.94379  -3.71897
H     0.84969   3.79471  -3.86996
C     2.78140   2.94620  -4.24368
H     3.13070   3.79914  -4.80644
C     3.62250   1.86662  -4.03335
H     4.62693   1.87974  -4.43021
C     3.18626   0.77206  -3.30595
H     3.84685  -0.06432  -3.12714
O    -0.99268  -3.24262  -3.77452
O     1.30649   0.94339   0.35438
