20

Pt    0.00000   0.00000   0.00000
Cl   -1.92264   1.02369   0.44890
N    -0.99806  -1.90034   0.36221
H    -1.41923  -1.81753   1.29331
H    -1.77076  -2.05574  -0.28402
C    -0.03773  -3.00262   0.35884
H     0.12464  -3.36032  -0.66219
C    -0.54902  -4.16426   1.20593
O    -1.48652  -4.07883   1.94989
O     0.17816  -5.26428   1.03759
H    -0.14071  -5.98712   1.60265
C     1.29459  -2.50220   0.95158
H     1.16140  -2.33142   2.02374
H     2.06130  -3.27168   0.82842
C     1.74957  -1.21260   0.30094
H     2.49331  -0.66148   0.87145
C     1.62174  -0.94888  -1.05303
H     1.22319  -1.69026  -1.73655
H     2.26015  -0.20064  -1.50469
O     0.72723   1.46916  -0.18762
