46

Fe    0.00000   0.00000   0.00000
Cl   -0.02079  -1.91756  -0.60379
N    -1.59858  -0.36062   2.01019
N     1.13642   0.38331   2.33543
C    -2.69689  -0.68269   1.09286
H    -2.47291  -1.64007   0.61705
H    -2.71322   0.09620   0.31820
C    -4.08281  -0.73826   1.74147
H    -4.12808  -1.55198   2.46813
H    -4.82694  -0.94057   0.96972
C    -4.36904   0.58932   2.43173
H    -4.39391   1.38865   1.68725
H    -5.33995   0.56243   2.93149
C    -3.26176   0.86680   3.44211
H    -3.29626   0.10377   4.22092
H    -3.41949   1.83649   3.91770
C    -1.88785   0.87337   2.74827
H    -1.90388   1.67557   1.99906
C    -0.76890   1.18894   3.75105
H    -1.06949   2.08178   4.31034
C     0.56260   1.51040   3.07122
H     0.42510   2.33141   2.36405
H     1.26797   1.84574   3.85360
C     2.47115   0.76851   1.87209
H     3.12784   0.98681   2.73326
H     2.37207   1.68054   1.27816
C     3.09443  -0.33837   1.03165
H     4.07049  -0.01633   0.66696
H     2.44899  -0.52986   0.16229
C     3.21744  -1.60565   1.86815
H     3.91868  -1.43361   2.68960
H     3.60281  -2.42636   1.26205
C     1.84390  -1.96755   2.42235
H     1.18773  -2.21752   1.58949
H     1.91660  -2.83499   3.08085
C     1.24561  -0.79549   3.19985
H     1.93633  -0.56091   4.03637
C    -0.10525  -1.15229   3.84309
H     0.05868  -2.03822   4.46742
C    -1.24338  -1.48458   2.87197
H    -0.95366  -2.31363   2.22264
H    -2.09720  -1.82171   3.48100
C    -0.54738   0.02272   4.70718
H    -1.45503  -0.21934   5.26046
H     0.22510   0.27773   5.43652
O    -0.12739   1.63703  -0.16245
