59

C    -2.20016  -0.65176  -0.77742
C    -2.21478   0.76831  -0.83296
H    -2.35376   1.36353  -1.72724
C    -2.15565   1.26008   0.48512
H    -2.22417   2.30121   0.77654
C    -2.10610   0.15622   1.36795
H    -2.14659   0.21357   2.44870
C    -2.14271  -1.02478   0.59694
H    -2.23162  -2.03395   0.97708
C    -2.16861  -1.56918  -1.93272
C    -1.46305  -1.22670  -3.02192
H    -1.42641  -1.83587  -3.90697
H    -0.90391  -0.30242  -3.04619
C    -4.16754  -2.75628  -1.26030
H    -4.24091  -1.95926  -0.51892
H    -4.40217  -3.70176  -0.76639
C    -5.18424  -2.48359  -2.37183
H    -4.91482  -1.57443  -2.90509
H    -6.17371  -2.35437  -1.94116
H    -5.22565  -3.30576  -3.08192
C    -2.44929  -3.88921  -2.62491
H    -1.38801  -3.78064  -2.86247
H    -3.00963  -3.84723  -3.56957
C    -2.65563  -5.25266  -1.96866
H    -2.19639  -5.26708  -0.98280
H    -2.18767  -6.02072  -2.57898
H    -3.70956  -5.49781  -1.86981
C     0.89481  -2.04912   0.93277
C     2.01628  -1.17957   0.85469
H     2.60959  -0.83720   1.69381
C     2.30293  -0.95342  -0.50530
H     3.14567  -0.39219  -0.89068
C     1.36855  -1.67797  -1.28142
H     1.38852  -1.77554  -2.35988
C     0.50433  -2.36310  -0.40155
H    -0.24659  -3.09060  -0.68032
C     0.21085  -2.48257   2.16623
C     0.09264  -1.62065   3.18815
H    -0.36530  -1.88661   4.12389
H     0.47155  -0.61244   3.10337
C     0.48929  -4.84072   1.69701
H     1.12656  -4.47715   0.88958
H    -0.12805  -5.65109   1.30315
C     1.38183  -5.36750   2.82359
H     1.95583  -4.54984   3.25428
H     2.07270  -6.10814   2.42927
H     0.79383  -5.83376   3.61025
C    -1.40152  -4.06346   3.08252
H    -1.96604  -3.14401   3.25745
H    -0.97822  -4.38415   4.04487
C    -2.36817  -5.12843   2.56935
H    -2.70989  -4.87332   1.56873
H    -3.23200  -5.17745   3.22729
H    -1.90840  -6.11261   2.54420
Cl    0.79838   1.55825   1.55722
N    -2.79223  -2.80214  -1.72736
N    -0.37835  -3.74792   2.10332
Zr    0.00000   0.00000   0.00000
O     0.45961   1.01638  -1.21583
