33

Pd    0.00000   0.00000   0.00000
S    -0.37120   1.10142   2.04693
N     1.64280  -1.00272   1.16221
C    -2.32139   2.96120  -1.87693
H    -2.17148   3.93149  -2.32577
C     1.90320  -0.49775   2.37214
C     2.18618  -2.16814   0.82022
H     1.95515  -2.53521  -0.17275
C    -3.61441   2.45658  -1.76596
C    -1.49800   0.96255  -0.83732
C    -2.78958   0.45196  -0.75451
H    -2.96025  -0.54330  -0.34724
C    -1.26195   2.20781  -1.41155
H    -0.24291   2.58069  -1.50588
C     1.31212   0.83721   2.71724
H     1.90909   1.63854   2.26978
H     1.27450   0.98815   3.79770
C    -1.24936  -0.29602   2.82089
H    -0.91575  -1.25110   2.40738
H    -2.30514  -0.14930   2.60538
H    -1.08702  -0.26477   3.89568
O    -5.83827   2.78845  -2.09109
O    -4.47914   4.33130  -2.71482
N    -4.71984   3.24518  -2.22587
C     3.27359  -2.37636   2.93141
H     3.90487  -2.90885   3.62609
C     3.00943  -2.88682   1.67106
H     3.42739  -3.82605   1.34824
C    -3.85453   1.20049  -1.21597
H    -4.86836   0.83297  -1.16464
C     2.70918  -1.16263   3.28769
H     2.89451  -0.72824   4.25801
O     0.20095  -0.79312  -1.43286
