53

Re    0.00000   0.00000   0.00000
O    -0.43321  -1.33414  -0.86847
C    -3.80591   1.05332   1.96623
H    -3.91427   2.06715   2.34637
H    -3.55115   0.38220   2.78236
H    -4.75391   0.74510   1.52985
C    -2.71827   1.00216   0.91473
C    -2.86042   1.84488  -0.18010
H    -3.74040   2.47074  -0.17657
C    -2.04776   1.93609  -1.31796
C    -2.54786   2.82083  -2.43257
H    -2.82661   2.20578  -3.28754
H    -1.76440   3.50253  -2.76034
H    -3.41401   3.39484  -2.11753
O    -1.78854   0.17958   1.14470
N    -0.90963   1.31228  -1.48732
C    -0.25784   1.38531  -2.73159
C    -0.59631   0.47711  -3.73290
H    -1.35182  -0.26668  -3.52727
C     0.05325   0.51780  -4.95313
H    -0.21282  -0.19047  -5.72366
C     1.04739   1.45524  -5.18457
H     1.55694   1.48106  -6.13584
C     1.38660   2.35746  -4.19056
H     2.16009   3.09074  -4.36599
C     0.73338   2.33226  -2.97167
H     0.98875   3.04381  -2.19920
C     1.09264   3.79552   1.59141
H     1.16379   3.52263   2.64427
H     0.08737   4.17865   1.41844
H     1.82371   4.56678   1.37077
C     1.31887   2.56756   0.75338
C     2.43994   2.43427  -0.03403
H     3.15347   3.24192  -0.05016
C     2.77635   1.25406  -0.74883
C     4.12378   1.22380  -1.41294
H     4.06327   0.71165  -2.37109
H     4.83003   0.67932  -0.78749
H     4.49920   2.23228  -1.56110
O     0.43230   1.64312   0.82444
N     1.99753   0.21147  -0.82511
C     2.51533  -0.99703  -1.36596
C     2.14967  -1.41899  -2.63866
H     1.48244  -0.81098  -3.22730
C     2.63437  -2.61726  -3.13019
H     2.34392  -2.94120  -4.11840
C     3.47834  -3.40021  -2.36079
H     3.84542  -4.33966  -2.74568
C     3.83937  -2.98001  -1.09210
H     4.48451  -3.59088  -0.47961
C     3.36914  -1.77932  -0.59318
H     3.62507  -1.46577   0.40720
O     0.65618  -0.81149   1.27805
