29

Fe    0.00000   0.00000   0.00000
I    -1.41887  -1.69811  -1.03125
P    -0.19180  -0.38767   2.11418
P     1.99339  -0.72739  -0.39292
C    -1.93253  -0.14639   2.63560
H    -2.56576  -0.87342   2.12527
H    -2.25391   0.85964   2.35803
H    -2.02362  -0.27199   3.71505
C     0.68055   0.65899   3.33752
H     0.42755   0.33725   4.34811
H     0.38133   1.69704   3.19513
H     1.75659   0.58495   3.18715
C     0.14982  -2.06138   2.77282
H    -0.17962  -2.12798   3.80987
H     1.21974  -2.25984   2.71637
H    -0.38105  -2.79852   2.17073
C     2.52567  -0.20246  -2.06669
H     2.58333   0.88637  -2.10085
H     1.79031  -0.54109  -2.79962
H     3.49982  -0.63086  -2.30498
C     3.40062  -0.14956   0.62590
H     4.34156  -0.45872   0.17038
H     3.32194  -0.57609   1.62547
H     3.36757   0.93730   0.69886
C     2.33132  -2.52532  -0.47370
H     1.69313  -2.97341  -1.23489
H     2.10326  -2.98798   0.48551
H     3.37898  -2.69495  -0.72385
O     0.16075   1.64098  -0.06210
