58

Cu    0.00000   0.00000   0.00000
S    -1.99072   1.13710  -0.26767
S     2.05281   1.05680  -0.02180
O    -6.38534  -3.91215   0.49367
O    -7.60398  -2.03897   0.60474
O     6.12663  -4.26006   0.48220
O     7.44418  -2.48949   0.86592
N    -2.99804  -1.24748   0.37302
H    -2.02524  -1.58913   0.38929
N    -4.49242   0.44328  -0.03534
H    -4.63483   1.42008  -0.24426
N     2.90616  -1.42156   0.46458
H     1.91591  -1.70479   0.42508
N     4.50085   0.21865   0.29304
H     4.70307   1.20016   0.17612
C    -3.22148   0.04278   0.06220
C    -4.00606  -2.18913   0.45058
C    -5.29690  -1.78097   0.48084
C    -5.60474  -0.29822   0.53681
H    -6.49268  -0.08314  -0.06692
C    -3.50993  -3.58944   0.46944
H    -4.30254  -4.27936   0.73362
H    -2.68095  -3.67611   1.16939
H    -3.13020  -3.85356  -0.51718
C    -5.85937   0.15318   1.98012
H    -6.06110   1.22157   2.01281
H    -4.98988  -0.05970   2.59823
H    -6.71638  -0.37812   2.38159
C    -6.43368  -2.70276   0.52357
C    -8.77822  -2.84845   0.64932
H    -8.68700  -3.55949   1.47826
H    -8.84784  -3.42326  -0.28114
C    -9.97870  -1.93847   0.82881
H   -10.88555  -2.53483   0.86353
H   -10.04559  -1.23780   0.00088
H    -9.88859  -1.37556   1.75410
C     3.20907  -0.12255   0.28294
C     3.86129  -2.41709   0.50914
C     5.16649  -2.07896   0.64050
C     5.54040  -0.62758   0.85675
H     6.47402  -0.40395   0.32994
C     3.31787  -3.79270   0.36849
H     3.95969  -4.51489   0.86169
H     3.27449  -4.06055  -0.68692
H     2.30794  -3.84111   0.76913
C     5.72331  -0.32728   2.34932
H     5.97104   0.72132   2.49809
H     6.52801  -0.93766   2.74649
H     4.80781  -0.55275   2.89169
C     6.24509  -3.06670   0.64730
C     8.56564  -3.37088   0.88131
H     8.58719  -3.93455  -0.05819
H     8.44134  -4.08807   1.70094
C     9.82307  -2.54114   1.05965
H    10.69028  -3.19440   1.07976
H     9.77639  -1.98386   1.99150
H     9.92758  -1.83696   0.23858
O    -0.05277  -1.62181   0.29908
