65

Zn    0.00000   0.00000   0.00000
S     2.05990  -1.35493  -0.46590
S    -1.57518  -1.44781  -1.33630
S     0.42275   1.65920  -1.85069
B     0.73947  -0.98971  -3.11040
C     2.70000  -2.17356   2.02091
C     0.65535  -3.24444   1.04547
C     2.93257  -3.87643   0.19042
C     2.06886  -2.76211   0.76487
C     1.45634  -2.04643  -2.04471
C    -3.82160  -1.19321   0.13033
C    -4.10329  -1.13120  -2.36421
C    -3.15704   0.85472  -1.15065
C    -3.26390  -0.66082  -1.18426
C    -0.91527  -0.95187  -2.96511
C     2.31444   3.57832  -2.38690
C     2.68554   2.22038  -0.30423
C     0.81967   3.89059  -0.39537
C     1.65694   2.89840  -1.19370
C     1.34568   0.54341  -2.96940
C     1.10672  -1.62540  -4.56006
C     2.03104  -1.07373  -5.44378
C     2.35440  -1.68010  -6.64581
C     1.76467  -2.87872  -7.00252
C     0.86054  -3.46553  -6.13462
C     0.54725  -2.84694  -4.93858
H     3.69835  -1.79823   1.80776
H     2.77243  -2.93826   2.79130
H     2.09943  -1.35346   2.41082
H     0.15214  -3.57177   0.13736
H     0.05875  -2.45967   1.51207
H     0.69061  -4.08927   1.73143
H     2.48376  -4.30070  -0.70508
H     3.04183  -4.67122   0.92602
H     3.92247  -3.50144  -0.06135
H     2.34170  -2.49445  -2.49733
H     0.76561  -2.84923  -1.79074
H    -3.86499  -2.27995   0.11585
H    -4.82591  -0.80661   0.28956
H    -3.20106  -0.88412   0.96989
H    -3.71201  -0.74577  -3.30322
H    -5.12610  -0.77670  -2.25059
H    -4.11898  -2.21807  -2.41315
H    -2.66961   1.24579  -2.04198
H    -2.60278   1.19019  -0.27330
H    -4.15531   1.28636  -1.09922
H    -1.39839  -1.62333  -3.67346
H    -1.28541   0.05484  -3.15706
H     2.91978   2.87648  -2.95619
H     2.96174   4.38143  -2.03950
H     1.56134   4.00380  -3.04703
H     3.21769   1.43048  -0.83120
H     2.21527   1.79163   0.58137
H     3.41753   2.95473   0.02798
H     0.06361   4.35004  -1.02815
H     1.45885   4.67304   0.00790
H     0.31944   3.39781   0.43664
H     1.31645   1.06651  -3.92483
H     2.37518   0.52580  -2.61475
H     2.52650  -0.14604  -5.19436
H     3.07395  -1.21478  -7.30617
H     2.01226  -3.35446  -7.94094
H     0.40061  -4.41067  -6.39074
H    -0.15064  -3.33913  -4.27368
O    -0.35667   0.50058   1.53124
