67

Pd    0.00000   0.00000   0.00000
Br    1.65178  -1.20682  -1.36434
N     0.26786  -1.51226   1.38968
C    -0.08773  -1.41336   2.78605
H     0.06643  -2.38963   3.26899
H    -1.14080  -1.12391   2.92793
C     0.79774  -0.36119   3.46738
H     0.54419   0.63180   3.07426
H     0.61389  -0.36359   4.54446
C     2.18768  -0.63312   3.21534
N     3.29014  -0.85913   3.00951
S    -0.41458  -2.63338   0.48005
C    -0.23563  -4.19168   1.37924
C     0.97247  -4.42044   2.02056
H     1.72925  -3.64933   2.02236
C     1.19392  -5.63615   2.64321
H     2.12783  -5.81248   3.15448
C     0.22321  -6.62400   2.59745
H     0.39674  -7.57265   3.08249
C    -0.96242  -6.40391   1.91545
H    -1.70941  -7.18134   1.86018
C    -1.19406  -5.18739   1.29536
H    -2.11065  -5.01586   0.75102
C    -2.19607  -2.32168   0.62516
C    -2.70712  -1.53820  -0.40356
H    -2.08152  -1.29898  -1.26681
C    -4.00723  -1.07040  -0.33391
H    -4.39178  -0.45047  -1.12903
C    -4.78306  -1.37549   0.77364
H    -5.79052  -0.99588   0.84455
C    -4.26707  -2.15082   1.79844
H    -4.86940  -2.37542   2.66575
C    -2.96654  -2.62671   1.73420
H    -2.56250  -3.22414   2.53879
N    -0.26792   1.51229  -1.38964
C     0.08792   1.41333  -2.78596
H    -0.06599   2.38962  -3.26893
H     1.14099   1.12376  -2.92762
C    -0.79743   0.36132  -3.46760
H    -0.54414  -0.63165  -3.07427
H    -0.61330   0.36356  -4.54461
C    -2.18739   0.63329  -3.21583
N    -3.28972   0.85961  -3.00998
S     0.41440   2.63354  -0.48010
C     0.23531   4.19170  -1.37953
C    -0.97292   4.42035  -2.02064
H    -1.72968   3.64922  -2.02227
C    -1.19450   5.63598  -2.64340
H    -2.12855   5.81227  -3.15444
C    -0.22378   6.62383  -2.59802
H    -0.39743   7.57242  -3.08313
C     0.96203   6.40382  -1.91630
H     1.70908   7.18121  -1.86135
C     1.19377   5.18742  -1.29603
H     2.11048   5.01594  -0.75187
C     2.19593   2.32184  -0.62506
C     2.70679   1.53832   0.40371
H     2.08103   1.29904   1.26684
C     4.00694   1.07060   0.33434
H     4.39133   0.45063   1.12950
C     4.78302   1.37585  -0.77300
H     5.79057   0.99642  -0.84363
C     4.26720   2.15118  -1.79788
H     4.86973   2.37592  -2.66501
C     2.96660   2.62692  -1.73394
H     2.56270   3.22427  -2.53865
O    -1.10836   0.80959   0.91575
