50

Pd    0.00000   0.00000   0.00000
N     1.98725  -0.26009   0.29806
N    -0.00548  -1.76833   1.25749
N     2.63404   1.35069  -1.31648
N     4.54103   2.24275  -2.46199
C     2.84674   0.32555  -0.43522
C     4.34774   0.30528  -0.72394
C     3.97059   1.46162  -1.66921
C     4.86308  -0.93118  -1.44960
H     5.00915  -1.75898  -0.75749
H     5.81970  -0.70402  -1.91680
H     4.16425  -1.24104  -2.22437
C     5.24364   0.71573   0.43693
H     5.33341  -0.09315   1.16022
H     4.84152   1.59260   0.94096
H     6.23701   0.95649   0.06306
C     2.38613  -1.29853   1.22338
H     2.81281  -0.83071   2.12385
H     3.16199  -1.94141   0.78427
C     1.21219  -2.15033   1.64722
C     1.40722  -3.28244   2.42971
H     2.40504  -3.56749   2.72753
C     0.30809  -4.03022   2.81664
H     0.43524  -4.91401   3.42349
C    -0.95304  -3.62136   2.40957
H    -1.83493  -4.17410   2.69008
C    -1.06470  -2.48389   1.62875
H    -2.02411  -2.11782   1.27801
C     1.46751   2.06237  -1.64531
C     0.21284   1.66558  -1.14202
C    -0.86417   2.49160  -1.48164
H    -1.85530   2.25673  -1.11841
C    -0.71491   3.61223  -2.28364
H    -1.57911   4.21606  -2.51919
C     0.52816   3.95409  -2.78594
H     0.64845   4.81964  -3.42030
C     1.62379   3.18100  -2.46184
H     2.60814   3.42898  -2.82670
C     5.90285   2.26906  -2.72653
C     6.74612   3.08553  -1.97526
H     6.33848   3.63874  -1.14176
C     8.08506   3.18330  -2.30148
H     8.73165   3.81617  -1.71111
C     8.59904   2.47560  -3.37537
H     9.64604   2.55434  -3.62624
C     7.76060   1.67092  -4.12904
H     8.15361   1.11873  -4.97027
C     6.41964   1.56635  -3.81313
H     5.76006   0.94385  -4.39971
O    -1.63852  -0.06633  -0.18266
