44

Re    0.00000   0.00000   0.00000
C    -2.70941   1.27269  -0.24510
C    -3.43422   0.07887  -0.55482
C    -2.86389  -1.21206  -0.43571
H    -3.55198  -2.03596  -0.60638
Cl   -0.27485  -0.46825   2.27315
O    -1.50802   1.24837   0.20064
O     1.44656   0.80818  -0.00432
N     2.19262  -1.89442  -0.23881
N    -1.61874  -1.47210  -0.16172
N    -1.20235  -2.77265  -0.04761
N     0.89546  -1.83579  -0.15488
C    -3.38344   2.51234  -0.36873
H    -2.82281   3.40319  -0.13192
C    -2.12363  -3.84490   0.24873
H    -1.60185  -4.61893   0.80678
H    -2.55331  -4.27754  -0.65910
H    -2.92277  -3.46072   0.88423
C     2.84316  -3.02873  -0.29263
C     2.13804  -4.25039  -0.28826
H     2.65424  -5.19379  -0.35439
C     0.13892  -2.95824  -0.12703
C     0.77020  -4.21225  -0.21357
H     0.18818  -5.11890  -0.23949
C     4.35114  -2.95501  -0.34926
C     4.79639  -1.49402  -0.40268
H     4.43089  -0.95385   0.46456
H     4.39444  -1.00758  -1.28573
H     5.88141  -1.43726  -0.42781
C     4.85059  -3.68986  -1.59935
H     4.41623  -3.24938  -2.49323
H     4.59579  -4.74654  -1.57341
H     5.93207  -3.60342  -1.66482
C    -4.68350   2.57288  -0.78660
H    -5.16963   3.53187  -0.88727
C     4.91485  -3.61906   0.91406
H     4.63413  -4.66799   0.97199
H     4.54474  -3.11127   1.80114
H     5.99979  -3.55517   0.90846
C    -5.39407   1.40330  -1.08662
H    -6.42077   1.46635  -1.41168
C    -4.77950   0.18831  -0.96408
H    -5.32104  -0.71909  -1.19273
O    -0.30118   0.08930  -1.61982
