67

Pd    0.00000   0.00000   0.00000
P    -0.96153   0.17132   2.06872
C    -0.46597  -0.55491   3.67160
C    -0.87737  -0.00423   4.88262
H    -1.45099   0.91349   4.89258
C    -0.53704  -0.62310   6.07072
H    -0.85402  -0.19303   7.01010
C     0.20788  -1.79181   6.05833
H     0.47081  -2.27107   6.98987
C     0.61623  -2.34118   4.85444
H     1.19903  -3.24993   4.84313
C     0.28134  -1.72770   3.65996
H     0.60448  -2.14151   2.71308
C    -2.54523  -0.72251   1.87249
C    -2.72344  -1.48911   0.72293
H    -1.92716  -1.53706  -0.03028
C    -3.88553  -2.22046   0.54664
H    -4.01856  -2.81534  -0.34510
C    -4.87371  -2.19558   1.51628
H    -5.78133  -2.76436   1.37823
C    -4.69269  -1.45134   2.67173
H    -5.45743  -1.44401   3.43477
C    -3.53211  -0.72350   2.85553
H    -3.38820  -0.15525   3.76361
C    -1.41731   1.88279   2.50650
C    -0.42084   2.77453   2.92719
C    -0.75937   4.09976   3.16289
H     0.00189   4.78814   3.50136
C    -2.05435   4.55011   2.97315
H    -2.29687   5.58538   3.16186
C    -3.03041   3.67600   2.52804
H    -4.03960   4.02351   2.36252
C    -2.70948   2.35212   2.29026
H    -3.47050   1.67396   1.92974
C     1.01321   2.30714   3.04952
H     1.00270   1.26481   3.39762
C     1.64521   2.31289   1.67482
C     2.25523   1.15476   1.18651
H     2.32729   0.27067   1.81521
C     2.88248   1.16321  -0.05791
H     3.38113   0.26775  -0.40754
C     2.90578   2.32640  -0.81471
H     3.40618   2.34209  -1.77292
C     2.29371   3.47451  -0.33589
H     2.31004   4.38138  -0.92379
C     1.66205   3.46623   0.89663
H     1.18439   4.36409   1.26216
C     1.78730   3.09675   4.08359
C     2.96573   3.77059   3.79827
H     3.37143   3.75119   2.79794
C     3.63361   4.46884   4.79114
H     4.54902   4.99015   4.55202
C     3.13587   4.49977   6.08096
H     3.65680   5.04708   6.85248
C     1.96713   3.81787   6.37805
H     1.57471   3.82884   7.38445
C     1.30225   3.12028   5.38820
H     0.39332   2.58558   5.62421
C    -0.92296   1.70717  -0.86377
H    -0.11115   2.43157  -0.84373
H    -1.88705   2.10635  -0.56647
C    -0.88045   0.66097  -1.79583
H    -1.80741   0.16284  -2.09085
C     0.35734   0.07743  -2.10303
H     1.23526   0.71584  -2.18426
H     0.37720  -0.80462  -2.73726
O     0.80404  -1.42166   0.23433
