58

Ti    0.00000   0.00000   0.00000
N    -0.95596   1.69144  -0.23500
N     1.34977   1.44508   1.22962
N    -1.13442  -1.09037  -0.60583
N    -0.85817  -0.40145   1.84951
N     0.79236   0.29512  -2.10164
C    -1.87651   2.13122  -1.13099
H    -2.37830   1.43120  -1.78049
C    -2.00754   3.49886  -1.05106
H    -2.66037   4.12227  -1.63331
C    -1.11577   3.92709  -0.04682
H    -0.95702   4.93566   0.28913
C    -0.49268   2.79092   0.42344
C     0.48752   2.59194   1.53737
H     1.08134   3.50830   1.70612
H    -0.05260   2.37619   2.47310
C     2.35876   1.84544   0.25333
H     2.91159   0.96704  -0.08887
H     3.07494   2.55974   0.69401
H     1.88202   2.33046  -0.60017
C     2.02878   0.98068   2.43378
H     1.29878   0.68787   3.19173
H     2.67398   1.76669   2.85804
H     2.64568   0.11476   2.19003
C    -2.06888  -2.09915  -0.88091
C    -1.97631  -2.48963  -2.37498
H    -2.07724  -1.59723  -2.99123
H    -2.76231  -3.19531  -2.63459
H    -1.00846  -2.94357  -2.57594
C    -1.76495  -3.34791  -0.01931
H    -0.70287  -3.58027  -0.09114
H    -2.34639  -4.20172  -0.36011
H    -2.00640  -3.14837   1.02354
C    -3.50368  -1.60749  -0.58213
H    -3.72728  -0.73915  -1.19777
H    -3.58268  -1.31692   0.46421
H    -4.22825  -2.39179  -0.79062
C    -0.44626  -1.43943   2.58852
H     0.49125  -1.89985   2.29277
C    -1.16315  -1.93532   3.66443
H    -0.78314  -2.77958   4.21876
C    -2.36279  -1.33366   4.01563
H    -2.94660  -1.69532   4.84822
C    -2.78639  -0.24661   3.26168
H    -3.70879   0.26265   3.49538
C    -2.01138   0.18437   2.20013
H    -2.32849   1.02240   1.58763
C     0.57143   1.37575  -2.85132
H     0.35249   2.30390  -2.33615
C     0.59944   1.36236  -4.23814
H     0.40177   2.26918  -4.78835
C     0.88308   0.17540  -4.89174
H     0.90856   0.12674  -5.97034
C     1.14140  -0.94614  -4.11876
H     1.38105  -1.89278  -4.57736
C     1.08193  -0.84061  -2.73827
H     1.28344  -1.70301  -2.11168
O     1.28167  -1.01943   0.20149
