34

Hg    0.00000   0.00000   0.00000
Cl   -0.94186  -1.76382   1.18240
N     0.91590  -0.85709   4.93532
N     2.94085  -2.99596   6.96588
N     2.39565  -1.64537   1.71219
H     2.77650  -2.53939   2.02353
N     2.18318  -1.41490   0.42204
N     1.24678  -0.94978  -2.05047
O     2.46447  -2.94636   8.08162
O     3.91168  -3.65293   6.64825
O     1.26350   0.24021   2.27292
C     1.78699  -0.80302   2.62135
C     1.83610  -1.27154   4.00065
C     2.72443  -2.13528   4.61516
H     3.58446  -2.62017   4.19899
C     2.31733  -2.22885   5.95605
C     1.18772  -1.43107   6.10759
H     0.59877  -1.27557   6.99008
C    -0.20761  -0.00306   4.66457
H    -0.77879  -0.39706   3.82127
H     0.13235   0.99872   4.39966
H    -0.84318   0.04418   5.54603
C     2.55341  -2.20560  -0.50179
H     3.12486  -3.11751  -0.31485
C     2.18817  -1.88685  -1.87309
C     2.79000  -2.53736  -2.94968
H     3.53962  -3.29325  -2.77285
C     2.41879  -2.18714  -4.23687
H     2.87164  -2.67397  -5.08761
C     1.46154  -1.20038  -4.40907
H     1.14594  -0.89338  -5.39311
C     0.90200  -0.61306  -3.28119
H     0.14696   0.15756  -3.36576
O    -0.42685   1.43044  -0.70294
