36

W     0.00000   0.00000   0.00000
Cl   -0.04130   0.74628  -2.14625
Cl    1.79145   1.48063   0.53031
N     0.40233  -1.06191   1.64787
N     1.76699  -1.34105  -0.69033
N    -1.25013   1.06467   0.66788
C    -0.34331  -1.41958   2.74454
H    -1.27458  -0.91517   2.94475
C     0.27353  -2.42972   3.42492
H    -0.07531  -2.91693   4.31349
C     1.47371  -2.72848   2.72483
H     2.19971  -3.47112   2.99122
C     1.51689  -1.88081   1.65423
C     2.50919  -1.64031   0.56120
H     3.17258  -2.50572   0.42873
H     3.12669  -0.76602   0.81322
C     2.69380  -0.73390  -1.66029
H     3.03347   0.23840  -1.29870
H     2.18668  -0.59308  -2.61518
H     3.56493  -1.38108  -1.81655
C     1.30719  -2.61978  -1.25887
H     0.68624  -2.43700  -2.13818
H     0.71957  -3.17155  -0.52177
H     2.16496  -3.23694  -1.55522
C    -2.14481   1.92483   1.15386
C    -1.82034   3.29000   1.27642
H    -0.83245   3.60980   0.97259
C    -2.74778   4.17785   1.77539
H    -2.48977   5.22279   1.86744
C    -4.00801   3.73970   2.15739
H    -4.72942   4.44228   2.54612
C    -4.34000   2.39781   2.03741
H    -5.32183   2.05698   2.33210
C    -3.42580   1.49205   1.54517
H    -3.66577   0.44330   1.43909
O    -1.06039  -1.18651  -0.43621
