61

Pt    0.00000   0.00000   0.00000
Cl   -1.79851   1.00452   1.03490
P    -0.06120  -1.41613   1.75142
N     1.21810  -2.54544   1.83635
H     1.16453  -3.07519   2.70564
C     2.54640  -2.31517   1.47358
C     2.90226  -1.77704   0.22534
C     4.24964  -1.61909  -0.08759
H     4.51669  -1.19600  -1.04533
C     5.24087  -2.00728   0.79344
H     6.27924  -1.88227   0.52854
C     4.89042  -2.56346   2.01257
H     5.65353  -2.87700   2.70857
C     3.55841  -2.71183   2.34615
H     3.28691  -3.13780   3.30292
C     0.02887  -0.58563   3.36533
C     0.61784   0.67288   3.39555
H     0.92915   1.12908   2.45983
C     0.76811   1.33624   4.59858
H     1.21365   2.31930   4.62277
C     0.33583   0.73980   5.77277
H     0.44419   1.25993   6.71299
C    -0.24130  -0.51989   5.74570
H    -0.57905  -0.97976   6.66300
C    -0.39295  -1.18876   4.54426
H    -0.85261  -2.16848   4.51615
C    -1.46635  -2.54742   1.87631
C    -2.69104  -2.03820   2.30065
H    -2.75987  -0.99743   2.58336
C    -3.80290  -2.85862   2.33393
H    -4.75179  -2.46367   2.66410
C    -3.70232  -4.18296   1.93672
H    -4.57330  -4.82115   1.96000
C    -2.48749  -4.68696   1.50170
H    -2.41007  -5.71635   1.18349
C    -1.36974  -3.87323   1.46619
H    -0.42442  -4.26139   1.11518
P     1.61001  -1.26880  -0.94203
C     0.78651  -2.83858  -1.33865
C     1.44869  -4.06174  -1.34058
H     2.50581  -4.10075  -1.11442
C     0.74685  -5.22029  -1.62353
H     1.25856  -6.17191  -1.62177
C    -0.60893  -5.16299  -1.90690
H    -1.15079  -6.07147  -2.12467
C    -1.27056  -3.94511  -1.90959
H    -2.32702  -3.90226  -2.12717
C    -0.57513  -2.78474  -1.62436
H    -1.07959  -1.82014  -1.61931
C     2.47802  -0.76144  -2.44453
C     2.54878  -1.55848  -3.58041
H     2.10284  -2.54327  -3.58071
C     3.18584  -1.07894  -4.71188
H     3.24031  -1.69521  -5.59739
C     3.74238   0.18929  -4.71473
H     4.22963   0.56060  -5.60416
C     3.66423   0.98856  -3.58425
H     4.08682   1.98201  -3.59329
C     3.02962   0.51825  -2.45134
H     2.93590   1.13702  -1.56865
O    -0.02460   1.06619  -1.25902
