52

W     0.00000   0.00000   0.00000
I     1.78770  -1.96194   1.03766
C    -1.36568  -0.93129   1.13463
O    -2.02596  -1.47174   1.94793
C    -1.84229  -0.60925  -0.38828
O    -2.91274  -0.88463  -0.83149
C     0.09426  -1.24847  -1.62723
N     0.03396  -2.14196  -2.37768
C    -0.13827  -3.34795  -3.08801
C     1.84038   0.91665  -0.52407
N     2.92194   1.32727  -0.43144
C     4.22475   1.75218  -0.11087
C    -1.07208   1.61441  -0.67467
N    -1.84698   2.47258  -0.84289
C    -2.90960   3.39839  -0.87824
C    -0.51120  -3.00941  -4.53296
C     1.17962  -4.12423  -3.02100
C    -1.26565  -4.12030  -2.39446
C     4.28324   3.27068  -0.28794
C     4.46547   1.35480   1.34907
C     5.19939   1.03551  -1.04735
C    -3.72822   3.18600   0.40007
C    -2.31315   4.80704  -0.91697
C    -3.75190   3.11377  -2.12446
H     0.27630  -2.42428  -5.00348
H    -1.43605  -2.43713  -4.56274
H    -0.64946  -3.92646  -5.09883
H     1.97509  -3.57058  -3.51498
H     1.06431  -5.08599  -3.51280
H     1.46860  -4.29196  -1.98560
H    -1.45650  -5.04871  -2.92559
H    -2.17959  -3.52941  -2.37851
H    -0.98702  -4.35499  -1.36905
H     3.55642   3.75413   0.36139
H     4.07278   3.54787  -1.31915
H     5.27501   3.62802  -0.02629
H     3.74025   1.83671   2.00152
H     5.46340   1.66133   1.64846
H     4.37807   0.27723   1.47196
H     4.99901   1.29439  -2.08531
H     5.11082  -0.04251  -0.93034
H     6.21668   1.32898  -0.80495
H    -4.12661   2.17368   0.43124
H    -4.55622   3.88893   0.42727
H    -3.10622   3.34173   1.27935
H    -1.69011   4.97648  -0.04145
H    -3.11204   5.54310  -0.92552
H    -1.70484   4.94041  -1.80922
H    -4.12243   2.09088  -2.10391
H    -3.15895   3.25049  -3.02660
H    -4.59969   3.79250  -2.15684
O     0.17790   0.98688   1.31031
