39

Au    0.00000   0.00000   0.00000
I     0.48658   1.01676  -3.40467
P    -1.75700  -0.33575  -1.37647
C    -2.32827   1.14743  -2.25521
C    -1.43905   1.83988  -3.07685
C    -1.78963   3.03546  -3.69603
C    -3.07071   3.52776  -3.46711
C    -3.96896   2.85591  -2.65812
C    -3.60090   1.67302  -2.04699
C    -0.83781   3.78277  -4.57085
C    -3.21530  -0.85477  -0.43046
C    -3.44697  -0.17354   0.76418
C    -4.50971  -0.52760   1.57134
C    -5.33517  -1.57862   1.20080
C    -5.09649  -2.27016   0.02483
C    -4.03881  -1.91396  -0.79399
C    -1.63603  -1.59063  -2.67876
C    -2.39247  -1.52606  -3.84525
C    -2.25858  -2.51800  -4.79874
C    -1.37858  -3.56920  -4.59288
C    -0.62663  -3.63417  -3.43094
C    -0.75159  -2.64408  -2.47417
H    -3.36213   4.45666  -3.93403
H    -4.95851   3.25684  -2.49964
H    -4.29884   1.14818  -1.41067
H    -2.78477   0.63603   1.04964
H    -4.68901   0.00653   2.49233
H    -6.16092  -1.86340   1.83525
H    -5.73480  -3.09457  -0.25678
H    -3.85260  -2.45866  -1.70926
H    -3.07755  -0.70256  -4.00204
H    -2.84120  -2.46945  -5.70693
H    -1.27590  -4.33779  -5.34404
H     0.06175  -4.45077  -3.27401
H    -0.15993  -2.67364  -1.56730
H     0.06026   4.05066  -4.01420
H    -0.52915   3.16634  -5.41520
H    -1.29652   4.69174  -4.95047
O     1.23582   0.25012   1.06427
