43

Ta    0.00000   0.00000   0.00000
Cl    1.08726   0.63448  -1.97552
S    -1.16560  -1.72504  -1.35785
S     1.96968  -2.32938  -0.25442
S    -0.55659  -1.37982   1.98564
C     0.15343  -2.44665  -2.38949
C     1.13626  -3.28021  -1.58590
C     1.38665  -3.21319   1.23560
C    -0.09965  -3.07349   1.50621
C    -1.77476   1.44508   0.81837
C    -1.30356   2.16433  -0.35326
C    -2.12703   1.79107  -1.43677
C    -3.11863   0.89674  -0.97152
C    -2.93020   0.69528   0.39424
C    -1.58205   1.89935   2.23618
C    -0.38411   3.34582  -0.35255
C    -1.90676   2.24809  -2.83539
C    -4.14338   0.22365  -1.82073
C    -3.74392  -0.14610   1.31266
H    -0.34064  -3.08017  -3.12695
H     0.65827  -1.61921  -2.89106
H     1.93039  -3.64338  -2.23909
H     0.63606  -4.12346  -1.11294
H     1.66678  -4.26069   1.11706
H     1.96351  -2.77496   2.05072
H    -0.37782  -3.71603   2.34218
H    -0.70179  -3.33505   0.63110
H    -0.60099   2.34846   2.37915
H    -1.67525   1.05595   2.91911
H    -2.34109   2.63847   2.49808
H    -0.96611   4.26945  -0.33599
H     0.23241   3.35330  -1.25061
H     0.27194   3.33984   0.51563
H    -2.65449   1.84385  -3.51070
H    -0.92197   1.91440  -3.17214
H    -1.92486   3.33645  -2.89412
H    -5.04674   0.02007  -1.25123
H    -3.74752  -0.72629  -2.18617
H    -4.40695   0.83875  -2.67759
H    -4.25944   0.47723   2.04442
H    -3.09469  -0.83024   1.86231
H    -4.47716  -0.73103   0.76620
O     1.24302   0.68634   0.84045
