31

Os    0.00000   0.00000   0.00000
O     0.78801  -0.94963  -1.60319
O    -0.65540   1.57342   1.01476
O    -0.01554   1.86681  -1.83442
H    -0.26811   1.35140  -2.60962
H    -0.80524   2.36039  -1.58407
N    -0.03078  -1.25042   1.09834
N     1.79048   0.88652   0.36865
C     2.05135  -1.21699  -1.75106
C     2.38927  -2.20659  -2.70110
H     1.57137  -2.69683  -3.20569
C     3.69322  -2.53110  -2.96811
H     3.91583  -3.29441  -3.69849
C     4.73733  -1.88112  -2.30302
H     5.76141  -2.14263  -2.51821
C     4.44740  -0.91309  -1.38066
H     5.24803  -0.40482  -0.86252
C     3.11721  -0.55403  -1.06930
C     2.92405   0.47848  -0.11425
H     3.83542   0.96785   0.22473
C     1.66077   1.95167   1.26140
C     2.69464   2.70542   1.81609
H     3.72566   2.49224   1.57881
C     2.40179   3.73286   2.68891
H     3.20511   4.30962   3.11999
C     1.08263   4.02650   3.01643
H     0.86885   4.83399   3.69996
C     0.04398   3.29938   2.47676
H    -0.98491   3.51295   2.71887
C     0.31558   2.25425   1.58644
O    -1.48260  -0.18398  -0.70038
