49

W     0.00000   0.00000   0.00000
Cl   -1.69682   0.32069  -1.58869
O     0.35434   1.61379   0.26487
O    -1.42221  -0.32207   1.11692
O     1.14657  -0.94985   1.08203
N    -0.46906  -2.55389  -0.38536
C    -1.42972  -1.26073   2.07209
C    -1.08705  -0.91662   3.38685
C    -1.14612  -1.90196   4.35667
H    -0.88846  -1.65528   5.37660
C    -1.52119  -3.20819   4.04827
C    -1.76777  -3.54535   2.72411
H    -1.99877  -4.56918   2.46449
C    -1.70908  -2.58516   1.72268
C    -1.78048  -2.87508   0.24611
H    -2.03711  -3.92971   0.06946
H    -2.53916  -2.23865  -0.22728
C     0.55642  -3.47519   0.17598
H     0.48289  -4.45824  -0.30896
H     0.34322  -3.60020   1.24437
C     1.95239  -2.92891   0.05009
C     3.00695  -3.61739  -0.53032
H     2.83571  -4.60565  -0.93243
C     4.27053  -3.04887  -0.61227
C     4.46640  -1.76026  -0.12446
H     5.43919  -1.30126  -0.22265
C     3.43810  -1.04131   0.45964
C     2.18172  -1.65133   0.56808
C    -0.62363   0.49117   3.61670
H    -0.02265   0.81848   2.74523
H    -0.02959   0.56652   4.52365
H    -1.47714   1.16520   3.69750
C    -1.62199  -4.23528   5.13579
H    -2.49275  -4.03449   5.75926
H    -0.74198  -4.20647   5.77522
H    -1.72213  -5.23461   4.72092
C    -0.56334  -2.79267  -1.83378
H    -1.26973  -2.09239  -2.28392
H    -0.89805  -3.81860  -2.03827
H     0.41700  -2.64527  -2.28904
C     5.40291  -3.78428  -1.26275
H     5.18062  -4.84425  -1.35104
H     6.31995  -3.66258  -0.69069
H     5.57710  -3.38643  -2.26212
C     3.55545   0.37938   0.92396
H     3.59710   0.42398   2.01279
H     2.66058   0.94397   0.60248
H     4.44565   0.85004   0.51667
O     0.99345  -0.16868  -1.30656
