49

Au    0.00000   0.00000   0.00000
N     2.62143   1.35750  -0.70320
C     1.87818   0.72440   0.21914
C     1.59874   2.87363  -2.29652
C     2.17367   1.63392  -2.02257
C     1.84335   0.93967  -4.28063
H     1.92983   0.18734  -5.05087
C     2.23198   0.05755   2.53563
C     2.89460  -0.68166  -2.67110
H     3.85052  -0.57099  -2.15964
H     3.04581  -1.26938  -3.57189
H     2.22272  -1.23238  -2.01156
C     2.08447  -1.87201   3.93089
H     2.28703  -2.91857   4.10548
C     1.13415   0.20110   4.64847
H     0.59302   0.77666   5.38517
C     3.22649  -2.08806   1.69883
H     3.39774  -3.10459   2.04095
H     4.18750  -1.63602   1.45300
H     2.63191  -2.12759   0.78558
C     3.84484   1.69482  -0.18772
H     4.58699   2.20506  -0.76662
C     1.26912   2.16598  -4.58661
C     0.91693  -1.79481   6.14725
H     1.55493  -2.63208   6.41930
H    -0.09391  -2.17513   5.99838
H     0.89061  -1.08462   6.97019
C     2.30075   0.65284  -3.00437
C     1.54129   0.81879   3.47673
C     1.44991   3.89402  -1.20911
H     0.81999   3.50223  -0.41001
H     0.99189   4.80012  -1.59491
H     2.41744   4.14998  -0.77706
C     1.23153   2.25926   3.20454
H     0.77859   2.72482   4.07513
H     0.53328   2.33851   2.37039
H     2.13304   2.81228   2.94088
N     2.64525   0.66510   1.31997
C     0.75246   2.43929  -5.96445
H     1.34995   1.92450  -6.71312
H     0.75500   3.50528  -6.17794
H    -0.27342   2.07998  -6.04818
C     2.50877  -1.29210   2.74602
C     1.15487   3.12099  -3.58577
H     0.70247   4.07560  -3.81145
C     3.86044   1.25487   1.09340
H     4.61730   1.31139   1.84855
C     1.39695  -1.14056   4.88964
O    -1.52642  -0.59964  -0.18157
