47

W     0.00000   0.00000   0.00000
Cl   -1.75457   1.33127   0.95080
O     1.08932   0.51390   1.39740
O    -0.49096  -1.35845   1.14620
O    -1.05117  -0.67451  -1.26496
O     0.54561   1.41271  -0.92931
C     1.23937  -0.42113   2.42074
H     1.47229   0.07204   3.37623
H     2.06274  -1.11089   2.14713
C    -0.09941  -1.19630   2.47435
H     0.00373  -2.16904   2.97789
H    -0.86638  -0.58722   2.99381
C    -1.90655  -1.01020  -2.25433
C    -3.19879  -1.42987  -1.90965
C    -4.07558  -1.76272  -2.92858
H    -5.07417  -2.09048  -2.68115
C    -3.68023  -1.67779  -4.25423
H    -4.37331  -1.94303  -5.03802
C    -2.40391  -1.25386  -4.57957
H    -2.10205  -1.18564  -5.61408
C    -1.49446  -0.91192  -3.58834
C    -3.55789  -1.46734  -0.45489
H    -2.68210  -1.75986   0.13917
H    -4.37069  -2.16439  -0.26879
H    -3.86482  -0.47368  -0.12042
C    -0.10286  -0.44028  -3.89976
H     0.42516  -1.18005  -4.49901
H     0.46504  -0.27631  -2.97184
H    -0.13103   0.49417  -4.46012
C     0.94534   2.34020  -1.82348
C    -0.02023   3.02794  -2.56869
C     0.41326   3.95795  -3.50110
H    -0.31604   4.49742  -4.08698
C     1.76531   4.19811  -3.68204
H     2.08651   4.92736  -4.41016
C     2.70816   3.51071  -2.93543
H     3.76027   3.70464  -3.08138
C     2.31557   2.56996  -1.99630
C    -1.46773   2.73204  -2.30666
H    -1.59090   1.68928  -1.97958
H    -2.07053   2.90175  -3.19549
H    -1.84294   3.37167  -1.50582
C     3.27291   1.77020  -1.16522
H     4.20565   2.30779  -1.01519
H     3.49301   0.81906  -1.65434
H     2.82058   1.54317  -0.19054
O     1.22277  -0.97282  -0.53005
