47

Mn    0.00000   0.00000   0.00000
N    -0.64274   1.00933  -1.56781
C    -0.47030   0.33183  -2.83601
H     0.50972   0.60766  -3.24570
H    -1.25201   0.60585  -3.55423
C    -0.48961  -1.16974  -2.53361
H    -1.52766  -1.48057  -2.35266
H    -0.06493  -1.75468  -3.35801
N     0.24216  -1.35561  -1.29854
C    -1.33731   2.09736  -1.53504
H    -1.80374   2.46243  -2.45238
C    -1.50294   2.90640  -0.37105
C    -0.77580   2.59210   0.80758
C    -0.88835   3.46913   1.92901
C    -1.73448   4.55514   1.87264
H    -1.84938   5.20508   2.72585
C    -2.45258   4.83987   0.70805
H    -3.10315   5.70063   0.69211
C    -2.32868   4.04239  -0.39856
H    -2.87597   4.26640  -1.30187
O     0.02502   1.57680   0.86664
O    -0.12348   3.11535   2.99962
C    -0.31358   3.80415   4.20944
H    -0.01240   4.85472   4.12687
H     0.32385   3.30393   4.93694
H    -1.35475   3.74982   4.54237
C     0.96615  -2.43042  -1.16241
H     1.06410  -3.10852  -2.01124
C     1.61410  -2.81880   0.03778
C     1.37432  -2.09686   1.24887
C     2.02371  -2.55569   2.44566
C     2.83222  -3.66494   2.41787
H     3.32131  -4.01228   3.31419
C     3.02875  -4.37610   1.22450
H     3.65948  -5.25156   1.23777
C     2.43241  -3.96812   0.06637
H     2.58418  -4.51542  -0.85226
O     0.56434  -1.10243   1.30756
O     1.78134  -1.77549   3.53625
C     2.29745  -2.18348   4.77612
H     1.93889  -3.18021   5.05279
H     1.93407  -1.45605   5.50020
H     3.39366  -2.18000   4.77792
O     2.26587   0.55646  -0.22785
H     2.71826  -0.17007   0.21714
H     2.31716   1.31340   0.37069
O    -1.56817  -0.43916   0.26548
