56

Zr    0.00000   0.00000   0.00000
Cl    0.47468  -1.39662   1.83278
Cl   -2.26583   0.27170   0.68121
O    -0.36743   1.98141  -0.94149
O     0.19737   1.55590   1.82642
C    -1.28315  -1.20872  -1.85393
C    -2.68770  -1.22033  -1.96317
C    -3.40432  -2.15720  -1.26221
C    -2.77334  -3.09575  -0.42828
C    -1.40729  -3.13535  -0.30846
C    -0.63434  -2.21216  -1.03780
C     0.77592  -2.05463  -1.19602
C     0.98687  -1.00214  -2.10534
C    -0.25110  -0.41516  -2.45718
C    -0.46632   0.67759  -3.48666
C    -1.59513   1.57577  -2.99554
C    -2.73077   1.83844  -3.75566
C    -3.76671   2.61774  -3.27233
C    -3.69589   3.15426  -2.00027
C    -2.56842   2.93176  -1.23273
C    -1.52576   2.15818  -1.72374
C     0.80764   1.52513  -3.67296
C    -0.79180  -0.00170  -4.82716
C     0.23503   3.23268  -0.57389
C    -0.87542   2.07713   2.61893
C    -0.25252   3.15743   3.51950
C     1.24723   2.82589   3.49227
C     1.28538   1.48348   2.76034
H    -3.19923  -0.50044  -2.58692
H    -4.48101  -2.17216  -1.34248
H    -3.38224  -3.80021   0.11847
H    -0.92049  -3.87242   0.31712
H     1.53744  -2.71626  -0.79974
H     1.95280  -0.72161  -2.50561
H    -2.81766   1.42312  -4.74582
H    -4.63441   2.79471  -3.88921
H    -4.50828   3.74360  -1.60546
H    -2.50607   3.34144  -0.23656
H     0.56650   2.44464  -4.20421
H     1.27296   1.77410  -2.72015
H     1.53318   0.97492  -4.26718
H     0.01555  -0.68697  -5.07596
H    -1.70842  -0.58148  -4.75656
H    -0.87944   0.72771  -5.62958
H     0.27442   3.89298  -1.44574
H    -0.31738   3.72660   0.22973
H     1.24995   3.00119  -0.24014
H    -1.30102   1.26395   3.22181
H    -1.65088   2.45618   1.95227
H    -0.44255   4.15661   3.12969
H    -0.66441   3.10314   4.52462
H     1.80065   3.57645   2.92845
H     1.67948   2.75151   4.48661
H     2.21000   1.31391   2.20855
H     1.11084   0.65225   3.45591
O     1.55219   0.55068  -0.09971
