47

Zn    0.00000   0.00000   0.00000
Cl    0.50052  -1.65679  -1.34630
N    -0.69664   1.74303  -0.99562
N    -0.87960   2.89841  -0.33357
N     2.68392   1.60494   0.57424
N     1.87189   0.56503   0.83197
C    -1.48420   0.69569  -3.08956
H    -2.30008   0.02136  -2.82671
H    -0.56329   0.11720  -3.07795
H    -1.66693   1.08387  -4.08914
C    -1.42007   1.80729  -2.11105
C    -2.07287   3.04244  -2.16456
H    -2.72854   3.39138  -2.93530
C    -1.71092   3.71267  -1.01258
C    -2.11474   5.05585  -0.53158
H    -1.26056   5.73205  -0.50590
H    -2.53306   4.99380   0.47232
H    -2.86776   5.46708  -1.19765
C    -0.23207   3.17162   0.92581
H     0.13578   2.22451   1.32051
H    -0.98532   3.54334   1.62602
C     0.87231   4.19244   0.78193
C     0.68737   5.45425   1.33702
H    -0.20970   5.65190   1.90521
C     1.62804   6.45647   1.18578
H     1.46099   7.42596   1.62947
C     2.77334   6.21003   0.45081
H     3.50645   6.98791   0.30221
C     2.98024   4.95220  -0.08511
H     3.87911   4.76187  -0.65342
C     2.05449   3.92819   0.08428
C     2.38484   2.55852  -0.46665
H     1.55717   2.14766  -1.04679
H     3.25594   2.63763  -1.12551
C     4.87206   2.56393   1.30290
H     4.51300   3.54769   1.60363
H     5.27398   2.63999   0.29295
H     5.67217   2.26304   1.97305
C     3.77982   1.56236   1.36094
C     3.65328   0.44275   2.15756
H     4.34301   0.09905   2.90041
C     2.44411  -0.15703   1.78981
C     1.83118  -1.39513   2.32332
H     1.61763  -2.08654   1.50869
H     0.88848  -1.16392   2.81830
H     2.50166  -1.87126   3.03336
O    -1.00740   0.03706   1.30625
