49

Fe    0.00000   0.00000   0.00000
Br   -0.49648   1.79944  -1.29146
N     0.41933  -1.05400  -1.58303
N    -1.54028  -0.98740  -0.05110
P    -0.80399   0.87286   1.87875
C     1.50082  -0.93818  -2.34658
H     2.20804  -0.17106  -2.05885
C     1.72770  -1.74013  -3.44377
H     2.61998  -1.61011  -4.03328
C     0.78590  -2.71637  -3.76399
H     0.93895  -3.36720  -4.61107
C    -0.34584  -2.83281  -2.98899
H    -1.09684  -3.57140  -3.21663
C    -0.51727  -1.97702  -1.89577
C    -1.66037  -1.92113  -1.02479
C    -2.83031  -2.68754  -1.18305
H    -2.86078  -3.43728  -1.95678
C    -3.91308  -2.46529  -0.38519
H    -4.82451  -3.03014  -0.50232
C    -3.84298  -1.44995   0.60134
C    -4.92445  -1.09623   1.42444
H    -5.85605  -1.63020   1.30936
C    -4.80896  -0.08355   2.34465
H    -5.65547   0.19008   2.95672
C    -3.59869   0.59251   2.50751
H    -3.52612   1.38533   3.23670
C    -2.50792   0.25334   1.73435
C    -2.62319  -0.75070   0.75163
C    -0.27904   0.00313   3.46125
H     0.81507   0.07930   3.47582
C    -0.65733  -1.47452   3.34911
H    -0.13262  -2.05022   4.10881
H    -0.38735  -1.88448   2.37630
H    -1.72856  -1.60931   3.49228
C    -0.82520   0.57785   4.76366
H    -1.91272   0.61758   4.75272
H    -0.42843   1.56840   4.97155
H    -0.52580  -0.07433   5.58301
C    -0.97736   2.65518   2.38791
H    -1.41077   2.64940   3.39446
C    -1.89374   3.46353   1.47523
H    -2.09669   4.43090   1.93239
H    -2.84214   2.95451   1.31249
H    -1.43248   3.63787   0.50852
C     0.42855   3.25065   2.43343
H     0.86524   3.25050   1.43501
H     1.07914   2.67609   3.09294
H     0.39720   4.27906   2.78856
O     1.37629  -0.56132   0.71642
