49

Rh    0.00000   0.00000   0.00000
O     5.85476  -1.93428  -4.49679
O     1.91666  -4.13125  -3.91888
N     3.89599  -3.01324  -4.17935
N     4.37022  -0.96258  -3.08471
N     1.14476  -1.87596  -2.01487
N     2.49961  -0.21095  -1.63397
C     4.37843  -4.04007  -5.08947
C     4.77338  -1.97556  -3.95500
C     5.30442   0.12094  -2.85237
C     3.14154  -1.04738  -2.50124
C     2.28755  -2.09949  -2.75556
C     2.61614  -3.18096  -3.63712
C     0.04341  -2.79330  -1.90308
C     1.26599  -0.73052  -1.33557
C     2.98981   0.97022  -0.96399
C    -0.71343   1.58797  -1.23937
C    -1.45127   0.42719  -1.48832
C    -2.84695   0.16555  -0.97219
C    -3.01314   0.47205   0.52814
C    -1.73139   0.26258   1.30268
C    -0.82117   1.26669   1.55324
C    -0.93357   2.68441   1.04140
C    -1.25896   2.76809  -0.46231
H     3.60156  -4.79670  -5.16929
H     5.29751  -4.47579  -4.69952
H     4.58618  -3.60196  -6.06523
H     6.18905  -0.09637  -3.45033
H     5.58876   0.16966  -1.80272
H     4.88212   1.07151  -3.17586
H    -0.53246  -2.82033  -2.82942
H    -0.59153  -2.46608  -1.07243
H     0.42202  -3.79537  -1.70370
H     2.18742   1.31291  -0.29566
H     3.22872   1.76386  -1.67109
H     3.86155   0.73580  -0.35345
H     0.04512   1.85374  -1.97754
H    -1.23623  -0.10775  -2.41496
H    -3.56306   0.75384  -1.55750
H    -3.08064  -0.88843  -1.14838
H    -3.78523  -0.18300   0.93689
H    -3.35297   1.49881   0.67297
H    -1.73743  -0.59970   1.97076
H    -0.18071   1.17416   2.43088
H    -1.69667   3.21490   1.62133
H     0.01833   3.18990   1.22884
H    -0.82835   3.68840  -0.86339
H    -2.33763   2.82616  -0.61646
O     0.89232  -0.88606   1.06826
