51

Zn    0.00000   0.00000   0.00000
Cl    2.06944   0.45479  -0.49029
N    -0.25563  -1.86381   0.84548
N    -1.34622  -3.70063   1.41803
H    -2.16595  -4.24749   1.67453
N    -3.69373  -2.21120   2.00475
N    -3.89833  -3.53184   2.14213
N    -5.31936  -2.41313   3.43951
N    -0.52247   1.29752   1.57288
N    -1.23371   2.97528   2.82212
H    -1.80199   3.74858   3.12873
N    -3.76578   2.65617   1.41419
N    -4.19762   1.69657   2.24565
N    -5.68807   3.35044   2.16723
C    -4.88012  -3.60834   3.01204
H    -5.28392  -4.54126   3.34729
C    -4.56247  -1.55694   2.79452
H    -4.60143  -0.48893   2.86248
C    -2.72264  -1.65066   1.10411
H    -2.55994  -0.60580   1.37556
H    -3.10508  -1.65939   0.07284
C    -1.42754  -2.38851   1.12848
C     0.66120  -2.88871   0.95549
C     2.03849  -2.89918   0.76724
H     2.56202  -2.00554   0.46629
C     2.68906  -4.09973   0.96214
H     3.75794  -4.14851   0.82214
C     2.00419  -5.26028   1.33203
H     2.55999  -6.17524   1.46981
C     0.63700  -5.26658   1.52072
H     0.10471  -6.16169   1.80150
C    -0.02497  -4.06404   1.32740
C    -5.35359   2.15145   2.67531
H    -5.96907   1.61665   3.36915
C    -4.68043   3.64158   1.38085
H    -4.58430   4.52831   0.78906
C    -2.50970   2.54097   0.72070
H    -2.32063   3.48191   0.19480
H    -2.54575   1.72923  -0.02453
C    -1.40944   2.25494   1.68699
C    -0.15169   2.44740   3.48671
C     0.47862   2.77729   4.67621
H     0.13558   3.59555   5.28978
C     1.56964   2.01012   5.03180
H     2.09405   2.23355   5.94820
C     2.01731   0.95353   4.23403
H     2.87834   0.38817   4.55522
C     1.39377   0.61971   3.05041
H     1.74344  -0.18280   2.42264
C     0.29482   1.38364   2.67761
O    -1.28112   0.10692  -1.03431
