57

Zr    0.00000   0.00000   0.00000
Cl    0.92079   2.20875  -0.30413
Cl    0.23752  -2.36410   0.32997
N     1.07217   0.04710   2.08371
O     2.33314  -0.40640  -0.53517
C    -1.74078   1.46747   1.02239
H    -1.47178   2.38365   1.53292
C    -2.09414   1.40038  -0.33653
H    -2.14370   2.23635  -1.02306
C    -2.53553   0.07466  -0.60621
C    -3.07460  -0.51174  -1.76626
H    -3.18320   0.07798  -2.66665
C    -3.46049  -1.82666  -1.72766
H    -3.87636  -2.29409  -2.60761
C    -3.32740  -2.58285  -0.55176
H    -3.64250  -3.61573  -0.55738
C    -2.81272  -2.04200   0.59970
H    -2.73751  -2.65993   1.48324
C    -2.39787  -0.69361   0.60951
C    -1.86727   0.18678   1.62002
C    -1.71298  -0.13341   3.08882
C    -0.64459  -1.25069   3.26334
H    -0.75218  -1.70137   4.25252
H    -0.81564  -2.03010   2.51494
C     0.75813  -0.75348   3.11682
C     1.70256  -1.08716   4.08947
H     1.41996  -1.74586   4.89583
C     2.98448  -0.58120   4.01714
H     3.72744  -0.84792   4.75363
C     3.27839   0.30810   2.99330
H     4.24706   0.77535   2.91819
C     2.29666   0.59201   2.06246
H     2.47893   1.32141   1.28050
C    -3.04520  -0.66288   3.67468
H    -3.21605  -1.67922   3.32145
H    -2.95183  -0.70343   4.76282
C    -4.25914   0.18221   3.30531
H    -4.16274   1.20051   3.67227
H    -5.15457  -0.25122   3.74453
H    -4.38770   0.21479   2.22676
C    -1.28225   1.10156   3.89302
H    -0.38213   1.55607   3.48147
H    -1.08200   0.81822   4.92521
H    -2.07091   1.84850   3.89307
C     2.99898   0.37445  -1.55969
H     3.36201   1.29789  -1.09290
H     2.27254   0.62551  -2.33907
C     4.15744  -0.47136  -2.08264
H     4.99996   0.14184  -2.39254
H     3.83177  -1.08090  -2.92520
C     4.46277  -1.35956  -0.88204
H     4.99728  -2.26951  -1.14176
H     5.03189  -0.80958  -0.13092
C     3.05289  -1.64136  -0.38292
H     2.57923  -2.41743  -0.99834
H     3.00441  -1.93890   0.66911
O    -0.02765  -0.25529  -1.62990
