42

Re    0.00000   0.00000   0.00000
C    -0.04265   1.11324   1.59885
O    -0.02244   1.82197   2.50133
N    -0.08255  -1.29192  -1.77214
F    -4.11672   5.94452   3.32389
N    -1.58451  -2.33651   1.78462
C     1.71990  -0.74518   0.51781
O     2.72704  -1.21281   0.80891
N    -1.07286  -1.82431   0.66695
C     0.77599   1.52106  -0.92459
O     1.15795   2.41779  -1.52564
O    -1.90889  -2.17480   4.02806
C     0.29452  -0.94215  -2.99673
H     0.74271   0.03701  -3.10269
C    -0.64865  -2.49765  -1.59790
C    -0.83626  -3.38703  -2.65362
H    -1.29757  -4.34410  -2.47149
C    -0.43922  -3.01494  -3.92352
H    -0.57895  -3.68213  -4.76014
C     0.13428  -1.76401  -4.09851
H     0.45250  -1.42621  -5.07131
C    -1.09423  -2.79163  -0.24935
C    -1.62355  -3.97136   0.31392
H    -1.76691  -4.91832  -0.16264
C    -1.90851  -3.64153   1.61051
H    -2.33069  -4.21034   2.41388
C    -1.93035  -1.59413   2.97183
C    -2.35645  -0.24293   2.70119
H    -2.53573   0.02639   1.67111
C    -2.56185   0.63012   3.70850
H    -2.37919   0.28325   4.71919
C    -2.97578   2.00285   3.56869
C    -3.14767   2.61810   2.32041
H    -2.96933   2.07047   1.40873
C    -3.52891   3.94027   2.23629
H    -3.65800   4.42407   1.28120
C    -3.74215   4.65564   3.40385
C    -3.57852   4.08153   4.65416
H    -3.74863   4.67127   5.54107
C    -3.19333   2.75980   4.72768
H    -3.05790   2.29761   5.69424
O    -1.50663   0.42738  -0.51953
