38

Cd    0.00000   0.00000   0.00000
Br    0.40980  -1.02241  -2.24184
S    -1.30229  -1.39112   2.04202
N     2.48146   0.41770   0.38831
N     0.76215   0.60632   2.46122
N    -0.35489   0.78138   3.20767
H    -0.53259   1.69502   3.61650
N    -2.47562   0.11187   3.86740
N     1.57281   2.80551   2.85252
H     0.64676   3.19712   2.96570
H     2.19929   3.47267   2.42795
C     3.45337   0.09149  -0.44903
H     3.17076  -0.54281  -1.28008
C     4.75878   0.53691  -0.29532
H     5.51735   0.24941  -1.00507
C     5.05624   1.35628   0.78148
H     6.06028   1.72171   0.93744
C     4.04223   1.70262   1.65929
H     4.23976   2.32403   2.51922
C     2.76242   1.20628   1.42842
C     1.61682   1.54681   2.29536
C    -1.39284  -0.09206   3.10037
C    -2.51770   0.92793   5.06440
H    -3.43562   1.52441   5.03340
H    -1.67072   1.61037   5.12158
C    -2.52830   0.02281   6.30115
H    -2.57469   0.64098   7.19853
H    -1.59897  -0.55013   6.32740
C    -3.71720  -0.93239   6.24693
H    -3.68521  -1.61512   7.09675
H    -4.64573  -0.36020   6.31025
C    -3.69134  -1.71626   4.93768
H    -2.80982  -2.35861   4.90304
H    -4.57601  -2.34633   4.85050
C    -3.64085  -0.74456   3.76121
H    -4.52691  -0.10172   3.76727
H    -3.59821  -1.28340   2.81522
O    -0.57327   1.53682   0.17903
