63

Re    0.00000   0.00000   0.00000
C     0.66552   1.78801  -0.02902
O     1.06237   2.87081  -0.03534
N     0.78205  -0.56427  -1.67569
N    -0.67178  -2.08475   0.08615
N     0.77874  -0.48440   1.69494
C     1.65495   0.10012  -2.57248
C     1.12024   1.02083  -3.48770
C     1.96897   1.66246  -4.37169
H     1.55702   2.37280  -5.07438
C     3.33674   1.41963  -4.37941
C     3.84731   0.50730  -3.47260
H     4.90914   0.30459  -3.45903
C     3.02893  -0.15882  -2.57100
C    -0.35049   1.30013  -3.50644
H    -0.68177   1.61906  -2.51724
H    -0.91144   0.40453  -3.77349
H    -0.58393   2.08092  -4.22475
C     4.22441   2.13553  -5.35156
H     3.95201   1.87857  -6.37475
H     5.26725   1.87320  -5.19400
H     4.11465   3.21286  -5.23923
C     3.63763  -1.13866  -1.61113
H     3.78164  -2.10774  -2.09237
H     2.99773  -1.26089  -0.74018
H     4.61078  -0.78457  -1.27949
C     0.49244  -1.93045  -2.09062
H     1.37510  -2.57496  -1.95507
H     0.25997  -1.94557  -3.16433
C    -0.70713  -2.48928  -1.31785
H    -1.62143  -2.06607  -1.74620
H    -0.75261  -3.58482  -1.42600
C    -1.95657  -2.37927   0.70816
H    -2.74785  -1.82734   0.20203
H    -1.94767  -2.06642   1.75124
H    -2.18506  -3.45315   0.66481
C     0.39846  -2.73918   0.84284
H     1.29226  -2.80035   0.21519
H     0.11814  -3.76171   1.13822
C     0.73146  -1.88976   2.07371
H    -0.01252  -2.04894   2.86791
H     1.70200  -2.20395   2.48454
C     1.30274   0.33673   2.72629
C     0.44496   0.81596   3.72641
C     0.96898   1.58148   4.75540
H     0.30549   1.94786   5.52629
C     2.31815   1.89731   4.81564
C     3.14505   1.44781   3.79801
H     4.19439   1.70646   3.81402
C     2.65965   0.67735   2.75379
C    -1.02778   0.53777   3.67562
H    -1.57043   1.26275   4.27651
H    -1.25696  -0.45661   4.06300
H    -1.38581   0.60462   2.64663
C     2.85232   2.74059   5.93343
H     2.60322   3.78742   5.75947
H     3.93382   2.65540   6.00285
H     2.41250   2.44636   6.88429
C     3.56291   0.24598   1.64113
H     3.12634   0.55727   0.69155
H     3.67972  -0.83733   1.62971
H     4.54554   0.69632   1.74925
O    -1.58150   0.44997  -0.13746
