59

Ni    0.00000   0.00000   0.00000
P     0.16769   2.12560  -0.35458
C     0.75055  -1.83330  -0.55341
C     1.78272  -2.45097   0.18729
H     2.81024  -2.20826  -0.04846
C     1.48947  -3.36843   1.16656
H     2.29054  -3.84283   1.71511
C     0.16585  -3.69072   1.46517
H    -0.04899  -4.41017   2.24087
C    -0.86575  -3.09284   0.77158
H    -1.89182  -3.33998   1.00348
C    -0.59345  -2.15871  -0.22364
H    -1.41042  -1.79298  -0.85147
C     0.97168  -0.75941  -1.48930
H     0.33422  -0.76248  -2.37451
H     2.01271  -0.55635  -1.73180
C     1.63060   2.85502   0.54719
H     1.79067   3.86267   0.15294
C     1.40691   2.86685   2.07739
H     1.51321   3.87025   2.48775
H     0.41188   2.49850   2.32147
C     2.43482   1.89595   2.67000
H     3.33770   2.42521   2.98180
H     2.03418   1.35829   3.52663
C     2.75483   0.97849   1.49972
H     1.89448   0.30663   1.31959
H     3.64980   0.37648   1.64721
C     2.86395   1.96367   0.34556
H     3.77730   2.55513   0.44278
H     2.87291   1.46606  -0.62096
C    -1.23865   3.13427   0.33177
H    -1.35047   2.77277   1.35555
C    -2.57458   2.88402  -0.40142
H    -2.49536   2.09550  -1.14837
H    -3.32698   2.57023   0.32203
C    -2.96600   4.23202  -1.00231
H    -2.48861   4.37690  -1.97292
H    -4.04265   4.32919  -1.13363
C    -2.40355   5.23409   0.00005
H    -3.03114   5.25148   0.89173
H    -2.34366   6.24556  -0.40078
C    -1.02978   4.65800   0.34132
H    -0.30814   4.97190  -0.41425
H    -0.66829   5.00477   1.30767
C     0.32533   2.80082  -2.08719
H     0.09050   3.86812  -2.03973
C     1.69967   2.64622  -2.74295
H     2.41918   3.38435  -2.39266
H     2.09410   1.64789  -2.55835
C     1.38303   2.77464  -4.22884
H     1.14966   3.81209  -4.47487
H     2.20390   2.44555  -4.86439
C     0.13954   1.90077  -4.37701
H     0.44052   0.85723  -4.47616
H    -0.45032   2.16436  -5.25369
C    -0.64323   2.11100  -3.07024
H    -1.52393   2.72685  -3.24557
H    -0.98160   1.15472  -2.66172
O    -0.86068   0.20390   1.39289
