63

Zn    0.00000   0.00000   0.00000
I    -1.09666  -2.18728  -0.54219
N     1.46274   0.35089  -1.75463
H     1.50830   1.36698  -1.84508
H     2.41732   0.04942  -1.56190
N     1.59281  -0.34235  -5.44639
N     1.45142  -0.76471   1.62036
H     1.63796  -1.74783   1.41995
H     2.35926  -0.30253   1.65752
N     1.10640  -1.22806   5.33489
C     0.62940   0.15511  -6.29790
C    -0.12663   1.31382  -6.20022
H    -0.02846   1.98968  -5.36331
C    -1.02470   1.58636  -7.21488
H    -1.62602   2.48166  -7.16026
C    -1.17346   0.73020  -8.30299
H    -1.88681   0.97814  -9.07447
C    -0.42629  -0.42631  -8.40457
H    -0.54338  -1.09093  -9.24691
C     0.48204  -0.72208  -7.39704
C     1.39336  -1.80964  -7.17535
C     1.69948  -2.96029  -7.88911
H     1.20370  -3.17090  -8.82438
C     2.64621  -3.82498  -7.37700
H     2.89835  -4.72593  -7.91571
C     3.28285  -3.55548  -6.16849
H     4.01591  -4.25253  -5.79005
C     2.99495  -2.41667  -5.44018
H     3.49776  -2.22846  -4.50254
C     2.04874  -1.54079  -5.95120
C     0.13964  -2.05411   5.86794
C    -0.43713  -3.19947   5.33936
H    -0.16626  -3.57745   4.36453
C    -1.38752  -3.85358   6.10049
H    -1.85283  -4.74578   5.70883
C    -1.76108  -3.38435   7.35729
H    -2.50823  -3.92343   7.92013
C    -1.19411  -2.24234   7.88692
H    -1.48642  -1.87656   8.85950
C    -0.23778  -1.56689   7.14061
C     0.53032  -0.37426   7.36492
C     0.59793   0.53639   8.41063
H    -0.01361   0.40429   9.29019
C     1.45844   1.61029   8.29877
H     1.52497   2.33109   9.09975
C     2.24315   1.78390   7.16179
H     2.90208   2.63718   7.09902
C     2.19409   0.89038   6.10855
H     2.80712   1.04727   5.23301
C     1.33621  -0.19406   6.21676
C     1.98164   0.24266  -4.19925
H     1.94866   1.33434  -4.29379
H     3.01532  -0.04880  -3.98141
C     1.06020  -0.20704  -3.05226
H     0.03618   0.10955  -3.26830
H     1.06840  -1.29783  -2.98499
C     0.84415  -0.68275   2.95621
H    -0.14082  -1.15797   2.92409
H     0.70832   0.37028   3.21624
C     1.69654  -1.36706   4.03829
H     1.80009  -2.43385   3.80822
H     2.69803  -0.92258   4.05846
O    -0.22212   1.56899   0.45983
