68

Pd    0.00000   0.00000   0.00000
P    -1.46038   1.80566  -0.26620
C     1.22428  -1.64887   0.58762
C     1.07370  -0.76619   1.66104
C     1.46638   0.56769   1.49095
C    -3.22369   1.09513  -0.01965
C    -4.30969   2.04822   0.48321
C    -3.07692  -0.03936   1.00730
C    -3.70038   0.49556  -1.34448
C    -1.20851   3.22406   0.98856
C    -2.11373   4.45686   0.95361
C    -1.29958   2.58987   2.38155
C     0.21835   3.71555   0.73812
C    -1.42164   2.58025  -1.94553
C    -2.34034   3.74717  -2.25591
C    -1.24704   1.57316  -3.05755
C    -0.10795   2.48716  -2.73298
C     0.20135   3.57706  -3.71833
C     0.37391   4.90357  -3.34222
C     0.69138   5.86878  -4.28170
C     0.85016   5.52092  -5.61126
C     0.69540   4.19967  -5.99501
C     0.37578   3.23695  -5.05555
C     1.17125   1.91398  -2.18741
C     2.16069   2.75660  -1.67919
C     3.40022   2.26928  -1.30519
C     3.70076   0.92680  -1.46304
C     2.74807   0.08063  -2.00600
C     1.48984   0.55946  -2.35580
H     0.82645  -2.65596   0.67251
H     2.09392  -1.55547  -0.05847
H     0.46690  -1.05083   2.52375
H     2.32154   0.77772   0.84893
H     1.34983   1.25597   2.31887
H    -5.25094   1.49948   0.52434
H    -4.45714   2.89317  -0.18398
H    -4.10546   2.40992   1.48673
H    -2.27968  -0.73631   0.71174
H    -4.00588  -0.60592   1.05886
H    -2.86283   0.34638   2.00285
H    -3.00300  -0.25876  -1.69883
H    -3.82227   1.25879  -2.10819
H    -4.66453   0.01173  -1.19243
H    -1.84419   5.09131   1.79905
H    -3.16608   4.22249   1.04293
H    -1.96569   5.03980   0.05172
H    -0.74564   3.18637   3.10608
H    -0.88248   1.58107   2.37525
H    -2.33114   2.53436   2.72133
H     0.25552   4.28674  -0.18546
H     0.91261   2.88213   0.65272
H     0.54743   4.36300   1.55029
H    -1.92678   4.69948  -1.93626
H    -3.30307   3.61215  -1.77071
H    -2.50727   3.81408  -3.32995
H    -1.16851   0.52979  -2.79154
H    -1.79459   1.74562  -3.97371
H     0.25780   5.19580  -2.30852
H     0.81636   6.89669  -3.97274
H     1.09706   6.27500  -6.34383
H     0.82533   3.91825  -7.02976
H     0.26274   2.20558  -5.35578
H     1.97729   3.81604  -1.59903
H     4.14210   2.94715  -0.90796
H     4.67638   0.54991  -1.19062
H     2.99269  -0.95477  -2.20348
H     0.81228  -0.10560  -2.87638
O    -0.69313  -1.05972  -1.05786
