46

Au    0.00000   0.00000   0.00000
N    -1.78337   2.43729  -0.08660
N    -3.36413   1.50681  -5.32740
N    -4.25971   0.66737  -5.62417
N    -0.81233   2.25595   1.81695
C    -0.96223   1.64097   0.63218
C    -2.22061   2.18749  -1.40218
C    -2.68448   0.92557  -1.76195
H    -2.71809   0.13819  -1.02535
C    -3.11247   0.69447  -3.04976
H    -3.46689  -0.27918  -3.35113
C    -3.07598   1.72118  -4.00443
C    -4.39739   0.32808  -6.95261
C    -3.37064   0.46675  -7.89620
H    -2.43390   0.90106  -7.58003
C    -3.56319   0.02915  -9.18901
H    -2.76930   0.12737  -9.91488
C    -4.77385  -0.53919  -9.56067
H    -4.91913  -0.87968 -10.57512
C    -5.79470  -0.67935  -8.63106
H    -6.73346  -1.12484  -8.92527
C    -5.60950  -0.26031  -7.33004
H    -6.38966  -0.35963  -6.59114
C    -2.59784   2.98430  -3.63380
H    -2.57252   3.77005  -4.37244
C    -2.18906   3.21734  -2.34059
H    -1.81613   4.19015  -2.05531
C    -2.12861   3.54690   0.64281
H    -2.78919   4.29910   0.26485
C    -1.51809   3.42804   1.84411
H    -1.52663   4.07225   2.69850
C     0.03066   1.80009   2.89694
H     0.28684   0.75633   2.69428
H    -0.52995   1.86163   3.83414
C     1.28248   2.64068   2.97322
C     2.25091   2.51974   1.98438
H     2.11109   1.80016   1.18921
C     3.38772   3.30603   2.02322
H     4.13742   3.20197   1.25357
C     3.56597   4.21931   3.04951
H     4.45495   4.83117   3.08104
C     2.60438   4.34367   4.03678
H     2.74008   5.05219   4.84041
C     1.46401   3.55936   3.99669
H     0.71713   3.65693   4.77232
O     0.82845  -1.32734  -0.52377
