53

Ta    0.00000   0.00000   0.00000
N    -1.69774   0.47756   1.60311
C    -0.58441   2.93164   0.35668
O    -0.01041   1.84190  -0.10233
O    -0.57915  -1.66763   0.65954
Cl   -2.01135   0.03938  -1.30483
C    -1.61265   2.87308   1.34018
C    -2.17976   4.07585   1.78173
H    -2.96072   4.03362   2.52757
C    -1.77132   5.29778   1.29296
H    -2.22800   6.20655   1.65228
C    -0.76802   5.34906   0.33507
H    -0.43913   6.30019  -0.05537
C    -0.18622   4.18481  -0.12304
H     0.59489   4.21401  -0.86807
C    -2.11355   1.64861   1.91502
H    -2.90196   1.78018   2.66049
C    -2.15246  -0.72496   2.12425
C    -1.50772  -1.86581   1.57156
C    -1.88370  -3.13377   2.01575
H    -1.39248  -3.99544   1.59046
C    -2.86518  -3.27346   2.97896
H    -3.14541  -4.26079   3.31370
C    -3.49078  -2.15874   3.51739
H    -4.25534  -2.27780   4.26937
C    -3.13850  -0.89131   3.09345
H    -3.63243  -0.03086   3.51944
C     2.14364  -0.27969  -1.04267
C     2.38100  -1.62552  -0.60770
C     1.55937  -2.49340  -1.34347
C     0.79627  -1.73396  -2.23840
C     1.13547  -0.34494  -2.07344
C     3.12393   0.84161  -0.82669
H     3.40521   0.89601   0.22393
H     2.69587   1.80060  -1.11536
H     4.02620   0.67473  -1.41785
C     3.34449  -1.98403   0.46879
H     3.31511  -3.04725   0.68749
H     3.09337  -1.43228   1.37666
H     4.36047  -1.70847   0.18362
C     1.46869  -3.97035  -1.12241
H     0.93912  -4.45542  -1.93787
H     0.93312  -4.17665  -0.19411
H     2.46163  -4.41139  -1.04869
C    -0.22288  -2.20294  -3.21711
H    -1.16881  -1.69308  -3.02462
H    -0.38588  -3.27428  -3.14513
H     0.08420  -1.96104  -4.23529
C     0.89374   0.68914  -3.14052
H    -0.14846   0.66682  -3.45535
H     1.52237   0.49026  -4.01050
H     1.11834   1.69049  -2.77559
O     0.84296   0.16419   1.40888
