66

Ru    0.00000   0.00000   0.00000
N     0.54446  -0.89620  -1.70103
O    -0.67121  -1.76416   0.82604
O    -0.75641   1.05156   1.60383
N     0.45414   1.67035  -0.99788
N     1.50947  -0.14539   0.71138
O     2.56810  -0.23970   1.18027
C    -0.66001  -2.90589   0.25681
C    -1.12511  -4.03727   1.02243
C    -1.16946  -5.27002   0.42813
H    -1.51877  -6.12553   0.98224
C    -0.78029  -5.48003  -0.90424
H    -0.84237  -6.47137  -1.32575
C    -0.33109  -4.43456  -1.64779
H    -0.02653  -4.58675  -2.67358
C    -0.23396  -3.12837  -1.10270
C     0.27312  -2.14018  -1.97483
H     0.45450  -2.48930  -2.99079
C    -0.82172   2.32237   1.69579
C    -1.30024   2.87799   2.93859
C    -1.45772   4.23406   3.04404
H    -1.82494   4.66645   3.96010
C    -1.16338   5.11236   1.98912
H    -1.31609   6.17220   2.12209
C    -0.68367   4.62011   0.81636
H    -0.44197   5.28920   0.00270
C    -0.47088   3.22980   0.63143
C     0.07435   2.85635  -0.61645
H     0.18957   3.67916  -1.32128
C     1.05351   0.01816  -2.61898
C     1.62539  -0.32926  -3.84312
H     1.70019  -1.36510  -4.13443
C     2.12722   0.64171  -4.68729
H     2.56720   0.35386  -5.62942
C     2.08110   1.97734  -4.32010
H     2.48553   2.73352  -4.97481
C     1.53188   2.34603  -3.10783
H     1.53510   3.38719  -2.82587
C     1.00475   1.38574  -2.24415
C    -1.57226  -3.81071   2.46142
C    -1.98883  -5.11328   3.15354
H    -2.28328  -4.89228   4.17728
H    -1.16529  -5.82329   3.18787
H    -2.83973  -5.57249   2.65551
C    -0.42197  -3.19806   3.27435
H    -0.72596  -3.08040   4.31199
H    -0.14900  -2.22098   2.88561
H     0.45194  -3.84622   3.24011
C    -2.78164  -2.86484   2.46559
H    -3.11465  -2.69158   3.48638
H    -3.60325  -3.30088   1.90040
H    -2.52389  -1.90870   2.02062
C    -1.62954   1.92825   4.08376
C    -0.39009   1.09064   4.43311
H    -0.60811   0.44473   5.28056
H     0.44282   1.74000   4.69697
H    -0.09476   0.46543   3.59484
C    -2.78287   1.00819   3.65965
H    -3.03316   0.32854   4.47107
H    -2.50488   0.42004   2.79067
H    -3.66451   1.59715   3.41398
C    -2.05986   2.67338   5.35213
H    -2.25956   1.94876   6.13865
H    -2.97129   3.24345   5.18721
H    -1.27594   3.34106   5.70308
O    -1.48843   0.14237  -0.69772
