66

Rh    0.00000   0.00000   0.00000
O     1.98538   3.52769   2.38426
O     3.90567   3.07138   1.40121
N     2.19907   1.61020   1.06847
C     3.31817   0.92358  -1.01024
C     0.91411   1.20641   1.20816
C     3.11840   0.75421   0.35952
C     3.80924  -0.21123   1.10161
C     0.14107   2.00619   2.13399
C    -0.01988   3.97541   3.54729
H     0.44724   4.86177   3.94536
C    -0.09246  -1.70962   1.25831
H     0.20346  -1.44195   2.27375
C     0.70525   3.16071   2.68679
C     2.71198   2.07962  -1.76598
H     1.90411   2.51701  -1.17419
C     4.18276   0.04179  -1.65033
H     4.35618   0.14370  -2.70971
C     4.84042  -0.94706  -0.94752
H     5.50962  -1.62106  -1.46209
C     2.76317   2.76259   1.60345
C    -0.62661  -0.99473  -1.84300
H    -0.63869  -0.22615  -2.61558
C     3.79108   3.14701  -1.97154
H     4.20704   3.45469  -1.01484
H     3.36312   4.01713  -2.46370
H     4.59911   2.75951  -2.58882
C     2.10654   1.64557  -3.09966
H     2.86988   1.34189  -3.81210
H     1.54556   2.47161  -3.52899
H     1.42072   0.81753  -2.93714
C    -1.18188   1.68524   2.46615
H    -1.62245   0.80173   2.01434
C     4.67245  -1.05834   0.41992
H     5.22449  -1.80955   0.96218
C    -1.32072   3.63444   3.85915
H    -1.89169   4.26541   4.52294
C    -1.68978  -1.02877  -0.97297
H    -2.45609  -0.26147  -1.08092
C     3.69511  -0.28490   2.60857
H     2.78746   0.24023   2.92690
C     0.92034  -1.90989   0.32271
H     1.94315  -1.74409   0.64765
C    -1.90181   2.49087   3.31793
H    -2.92315   2.24317   3.56307
C     0.80229  -2.85505  -0.85323
H     0.13294  -3.67558  -0.59062
H     1.78375  -3.28996  -1.05301
C    -1.46183  -2.34827   1.18937
H    -2.10623  -1.84956   1.91828
H    -1.38460  -3.39693   1.49801
C     0.31341  -2.14195  -2.12678
H     1.18146  -1.74657  -2.66063
H    -0.18079  -2.85683  -2.79400
C     3.59999  -1.71503   3.14392
H     2.78389  -2.25773   2.67248
H     3.41801  -1.68810   4.21624
H     4.52361  -2.26233   2.97727
C    -2.11628  -2.25897  -0.20348
H    -1.87709  -3.14466  -0.79372
H    -3.20089  -2.23930  -0.07917
C     4.90814   0.42647   3.21960
H     5.82153  -0.10545   2.96362
H     4.81873   0.46246   4.30323
H     4.98975   1.44182   2.83982
O    -0.48998   1.44958  -0.61737
