56

Rh    0.00000   0.00000   0.00000
P    -1.80524   0.38209  -1.35039
C     0.55376   2.02873   0.28846
H    -0.30328   2.68073   0.12143
C     1.18470   1.51666  -0.84698
H     0.79482   1.82749  -1.81894
C     2.63593   1.09197  -0.90832
H     3.27290   1.98313  -0.94774
H     2.78780   0.54911  -1.84554
C     3.06080   0.18974   0.26711
H     3.85758  -0.47622  -0.07088
H     3.46709   0.79073   1.08185
C     1.91107  -0.64098   0.79094
H     1.96278  -1.70649   0.56774
C     1.09778  -0.24732   1.83585
H     0.57086  -1.02445   2.38940
C     1.18988   1.07721   2.55460
H     2.05728   1.06557   3.22403
H     0.29981   1.18490   3.17955
C     1.27649   2.28145   1.59649
H     0.83215   3.15069   2.08589
H     2.31812   2.53021   1.38703
C    -1.96572   1.99038  -2.19918
C    -2.45466   3.07224  -1.47018
H    -2.80383   2.91099  -0.45798
C    -2.51100   4.33096  -2.03705
H    -2.89823   5.16322  -1.46726
C    -2.06781   4.52529  -3.33607
H    -2.11099   5.50871  -3.78028
C    -1.56742   3.45763  -4.06205
H    -1.21856   3.60809  -5.07345
C    -1.50972   2.19592  -3.49582
H    -1.11567   1.36352  -4.06290
C    -1.71491  -0.78500  -2.75167
C    -2.78027  -1.04495  -3.60593
H    -3.73304  -0.56073  -3.44712
C    -2.62205  -1.93342  -4.65429
H    -3.45240  -2.13662  -5.31521
C    -1.40615  -2.56666  -4.85613
H    -1.29012  -3.26228  -5.67445
C    -0.34355  -2.31566  -4.00347
H     0.60124  -2.81717  -4.15451
C    -0.49800  -1.42843  -2.95445
H     0.31924  -1.23756  -2.25940
C    -3.50669   0.13222  -0.74011
C    -3.68586  -0.69314   0.36478
H    -2.82146  -1.13829   0.83521
C    -4.95807  -0.94442   0.84673
H    -5.09149  -1.58823   1.70363
C    -6.05879  -0.37031   0.23304
H    -7.05297  -0.56490   0.60842
C    -5.88468   0.46001  -0.86257
H    -6.74209   0.91287  -1.33997
C    -4.61554   0.71373  -1.34988
H    -4.48795   1.37559  -2.19600
O    -0.59385  -1.52133   0.23537
