40

Rh    0.00000   0.00000   0.00000
Cl    1.08715   1.90666   0.52512
Cl    1.89018  -1.28940   0.45652
N    -0.89696  -1.56162  -0.43155
N    -1.51159  -3.13002  -2.02365
N    -2.21599  -3.34571   0.23813
N     0.43592  -0.07055  -1.95036
N    -0.72861  -0.43988   1.81373
N    -3.57876  -5.56786  -0.40225
C    -0.88348  -2.02361  -1.68774
C    -1.56720  -2.23730   0.51184
C    -2.16543  -3.75866  -1.03343
C    -0.10816  -1.15285  -2.56819
C     0.07196  -1.38583  -3.92505
C     0.82578  -0.49103  -4.66473
C     1.37605   0.60866  -4.02218
C     1.15755   0.78237  -2.66366
C    -1.46485  -1.58268   1.81334
C    -2.06163  -2.07226   2.96722
C    -1.89808  -1.37280   4.15085
C    -1.14416  -0.20805   4.13954
C    -0.57640   0.22492   2.95021
C    -2.87612  -4.98942  -1.37404
C    -2.80406  -5.51350  -2.66720
C    -3.49268  -6.68130  -2.94368
C    -4.22517  -7.28055  -1.93064
C    -4.23078  -6.67616  -0.67768
H    -0.38302  -2.25938  -4.36343
H     0.98110  -0.64794  -5.72101
H     1.96929   1.32892  -4.56216
H     1.56943   1.62784  -2.12442
H    -2.63385  -2.98379   2.90137
H    -2.34925  -1.72912   5.06399
H    -0.99263   0.36532   5.03996
H     0.01854   1.12971   2.89942
H    -2.21841  -5.00450  -3.41473
H    -3.45873  -7.11679  -3.93177
H    -4.77723  -8.19087  -2.10445
H    -4.78786  -7.10459   0.14527
O    -1.38004   0.83508  -0.34731
