63

Re    0.00000   0.00000   0.00000
O     0.75643   1.26622  -0.75829
O    -0.55696  -1.55942   0.93407
Cl   -1.82608   1.10657   0.89540
N     0.98883   0.34624   1.92937
N     1.78755   0.05625   3.96652
H     1.99072  -0.38649   4.84590
As    1.88106  -1.50539  -0.83771
C     3.24557  -1.57329   0.54813
C     3.87713  -0.36423   0.84148
H     3.68919   0.49169   0.19800
C     4.70319  -0.25240   1.94373
H     5.18093   0.69023   2.16841
C     4.90302  -1.34935   2.76902
H     5.54491  -1.26323   3.63364
C     4.27497  -2.55165   2.48976
H     4.42467  -3.40382   3.13694
C     3.44049  -2.66356   1.38925
H     2.92458  -3.59682   1.18688
C     2.86269  -0.91172  -2.40784
C     2.11567  -0.36609  -3.44695
H     1.04022  -0.26998  -3.33026
C     2.74830   0.06223  -4.60094
H     2.16913   0.49002  -5.40558
C     4.12428  -0.05140  -4.71989
H     4.61845   0.28699  -5.61863
C     4.87052  -0.59202  -3.68542
H     5.94386  -0.67450  -3.77824
C     4.24374  -1.02366  -2.52857
H     4.82478  -1.43787  -1.70958
C     1.55672  -3.37446  -1.28627
C     0.25803  -3.83055  -1.47132
H    -0.56891  -3.13454  -1.37971
C     0.03302  -5.15820  -1.79851
H    -0.97696  -5.51263  -1.94309
C     1.09991  -6.02784  -1.94652
H     0.92279  -7.06279  -2.19944
C     2.39875  -5.57095  -1.78223
H     3.23090  -6.24776  -1.91155
C     2.62969  -4.24671  -1.45594
H     3.64338  -3.87501  -1.33397
C    -0.18109  -2.34890   1.89065
C    -0.63948  -3.67836   1.93682
H    -1.31968  -4.00322   1.16410
C    -0.22656  -4.53444   2.92912
H    -0.58386  -5.55328   2.93936
C     0.65145  -4.09829   3.91636
H     0.97834  -4.77683   4.68894
C     1.09874  -2.79596   3.90881
H     1.78864  -2.47317   4.67544
C     0.69974  -1.89797   2.91519
C     1.14235  -0.52461   2.91558
C     2.05085   1.36144   3.63800
C     2.67950   2.39462   4.31376
H     3.07306   2.25890   5.30939
C     2.77168   3.60505   3.65540
H     3.25089   4.43739   4.14817
C     2.25382   3.78380   2.36982
H     2.34442   4.75186   1.90199
C     1.62596   2.76059   1.69179
H     1.21193   2.88057   0.70137
C     1.53196   1.53473   2.33952
O    -0.88527  -0.46667  -1.31188
