18

C     1.21292   1.23611   0.90352
C     1.44792  -1.25174  -0.44142
C     0.18004   0.94283  -1.69428
C    -2.71222  -0.96514  -0.32226
H    -3.56042  -1.61761  -0.50751
C    -2.87131   0.28974   0.32653
H    -3.83857   0.66444   0.63296
N    -1.50438  -1.28463  -0.65085
N    -1.78932   0.96652   0.54633
O     1.85550   1.95084   1.52382
O     2.21577  -2.06832  -0.62967
O     0.26624   1.49572  -2.69111
O    -1.25743  -2.46232  -1.26936
H    -2.05926  -3.01702  -1.32351
O    -1.99096   2.18045   1.15547
H    -1.12692   2.56020   1.37958
Re    0.00000   0.00000   0.00000
O    -0.16649  -0.80945   1.42813
