64

N     0.77407   1.60210  -3.53849
N     1.92450  -0.73155   1.05720
C     2.08715  -0.53901   2.17860
C     0.43028   1.10844  -4.88539
H     0.43796   1.95688  -5.57583
H    -0.56474   0.66404  -4.86139
C    -0.20245   2.60207  -3.02128
H     0.08315   2.81456  -1.98424
H    -0.10677   3.50886  -3.62390
C     2.15045   2.13982  -3.54302
H     2.40651   2.43365  -2.52300
H     2.18315   3.00137  -4.21534
C     3.10988   1.05387  -4.03020
H     4.12300   1.45010  -4.10260
H     3.08977   0.21404  -3.32345
C    -6.09417   1.90123  -5.19129
H    -6.04555   0.82300  -5.32265
H    -6.58225   2.12608  -4.24629
H    -6.70929   2.30816  -5.99115
C    -4.08230   2.18842  -6.61741
H    -3.93560   1.11413  -6.70624
H    -4.74287   2.51345  -7.41798
H    -3.12138   2.67717  -6.75204
C    -4.85450   4.05006  -5.11745
H    -3.89960   4.55776  -5.21951
H    -5.52519   4.42871  -5.88557
H    -5.26921   4.29857  -4.14330
O     2.75917   0.61658  -5.32465
C     1.46383   0.06527  -5.31993
H     1.41378  -0.79187  -4.63555
H     1.26402  -0.26110  -6.34150
C     2.27149  -0.29156   3.56755
H     0.77807   0.75780  -2.89370
H     1.41581   0.29693   3.90961
H     2.30911  -1.23521   4.11103
H     3.19049   0.27186   3.72683
Zr    0.00000   0.00000   0.00000
Cl    0.91470  -1.03214  -2.00525
Cl   -0.64524  -2.08409   0.91556
Cl   -0.51044   1.09291   2.05921
O    -1.19999   0.85775  -1.11933
C    -3.34020   0.62528  -2.19449
C    -2.04002   1.16937  -2.09832
C    -1.61422   2.08895  -3.07603
C    -2.47829   2.50377  -4.07530
H    -2.11765   3.22253  -4.79624
C    -2.86745  -1.70417  -1.54538
H    -1.80646  -1.43471  -1.50669
H    -3.04275  -2.49224  -0.81577
H    -3.08360  -2.09356  -2.53965
C    -4.16717   1.07964  -3.21059
H    -5.16130   0.67782  -3.27019
C    -3.77799   2.02616  -4.15221
C    -3.62869  -0.06106   0.22084
H    -4.22613   0.83079   0.40661
H    -3.98594  -0.85865   0.87026
H    -2.58994   0.15217   0.49683
C    -3.76707  -0.49201  -1.24854
C    -4.69948   2.52889  -5.25310
C    -5.22334  -0.92628  -1.45592
H    -5.90907  -0.10289  -1.26998
H    -5.38627  -1.31091  -2.45977
H    -5.45707  -1.72394  -0.75462
O     1.11183   1.19414  -0.24568
