53

Pd    0.00000   0.00000   0.00000
N    -0.35280  -2.14129   1.97945
N    -3.26706  -2.10249   3.45597
N     0.42470   1.76116  -1.27338
N    -1.72360   1.31572   0.34120
C    -0.73249  -1.57707   0.94202
C    -1.94899  -1.95116   0.21953
C    -3.13152  -2.28023   0.90675
C    -4.28728  -2.61011   0.19825
H    -5.19011  -2.84871   0.74160
C    -4.26732  -2.62982  -1.18224
H    -5.16135  -2.89129  -1.72794
C    -3.10131  -2.31274  -1.86914
H    -3.09201  -2.33623  -2.94878
C    -1.95539  -1.96531  -1.17904
H    -1.03416  -1.73204  -1.72227
C    -3.17334  -2.21222   2.31754
C     0.78219  -2.03605   2.75563
C     1.43851  -3.24597   3.03211
C     2.56289  -3.23400   3.83786
H     3.07634  -4.16204   4.04234
C     3.02982  -2.05044   4.38148
H     3.90582  -2.05127   5.01287
C     2.37357  -0.86387   4.11262
H     2.74162   0.06050   4.53531
C     1.25144  -0.83116   3.29834
C     0.56729   0.47487   3.01602
H     0.94831   1.25334   3.67378
H    -0.51184   0.38605   3.16659
H     0.77047   0.79272   1.96546
C     0.93586  -4.50896   2.40723
H     1.15035  -4.49900   1.33841
H    -0.14363  -4.58567   2.52900
H     1.41417  -5.37796   2.85085
C    -0.65750   2.54276  -1.42042
C    -0.81552   3.36709  -2.53354
H    -1.71113   3.95681  -2.65151
C     0.17579   3.39376  -3.49759
H     0.07318   4.02388  -4.36836
C     1.29704   2.59399  -3.32656
H     2.09584   2.58901  -4.05031
C     1.37252   1.78794  -2.20321
H     2.22676   1.14180  -2.03406
C    -1.66083   2.46738  -0.34884
C    -2.49349   3.54397  -0.04367
H    -2.39896   4.47114  -0.58650
C    -3.41695   3.41975   0.97680
H    -4.07100   4.24107   1.22730
C    -3.47859   2.22220   1.67630
H    -4.18183   2.07631   2.47994
C    -2.60796   1.20584   1.32667
H    -2.63060   0.26416   1.86146
O     1.32626  -0.90554  -0.37885
