49

Zr    0.00000   0.00000   0.00000
Cl   -1.97417   0.08758  -1.27935
C    -0.76618  -2.01077   1.23512
H    -1.64701  -2.00340   1.86754
C    -0.72214  -2.41848  -0.11601
H    -1.56128  -2.78384  -0.69466
C     0.62042  -2.37215  -0.54572
H     0.99107  -2.73585  -1.49660
C     1.41518  -1.96445   0.55404
H     2.49603  -2.00514   0.59574
C     0.55798  -1.72946   1.65877
C     0.99392  -1.30846   3.03647
H     0.11113  -1.15806   3.66393
H     1.60343  -2.09683   3.49241
C     1.80354  -0.00502   2.98837
H     1.18412   0.76765   2.51471
H     2.70849  -0.15842   2.39045
C     2.20664   0.48978   4.37605
H     1.30787   0.67451   4.96700
H     2.79157  -0.28020   4.88514
C     3.03577   1.77582   4.29842
H     3.38623   2.01797   5.30707
H     3.91750   1.60936   3.67475
C     2.26411   2.95297   3.78429
H     1.31946   3.13949   4.27847
C     2.68911   3.77344   2.83592
H     3.63834   3.58087   2.34768
C     1.97979   5.00635   2.36742
H     2.69124   5.83639   2.38737
H     1.15909   5.24598   3.04537
C     1.42805   4.85822   0.94137
H     1.23056   5.84902   0.52688
H     2.18136   4.38620   0.30844
C     0.13613   4.03808   0.93201
H    -0.69403   4.68667   1.21789
H     0.19714   3.24589   1.68152
C    -0.17339   3.41435  -0.43187
H    -1.22456   3.09358  -0.45033
H    -0.05264   4.17349  -1.21331
C     0.69842   2.22526  -0.75650
C     0.61102   1.45571  -1.94222
H    -0.05026   1.65970  -2.77543
C     1.60245   0.45089  -1.90251
H     1.84938  -0.22187  -2.71445
C     2.32946   0.60778  -0.70335
H     3.25635   0.10652  -0.45679
C     1.76377   1.68965   0.01798
H     2.19342   2.13681   0.90406
O    -0.83162   0.74267   1.21629
