50

Nb    0.00000   0.00000   0.00000
Cl   -0.97635  -2.16781   0.48152
Cl    0.98233   1.39299  -1.74853
Cl   -2.15145   0.43930  -1.19813
P    -0.27371  -1.15791  -2.21044
C    -1.26818   0.87562   1.86166
C    -0.19427   0.16299   2.47154
C     1.01567   0.84432   2.17050
C     0.70041   1.96740   1.35993
C    -0.71198   1.99623   1.17354
C    -2.71962   0.58434   2.07411
C    -0.31834  -0.98803   3.41678
C     2.35671   0.52289   2.74082
C     1.65665   3.03736   0.94552
C    -1.45785   3.11882   0.52643
C     1.10037  -2.17651  -2.89330
C     0.95357  -2.41046  -4.39755
C    -0.20426  -3.35543  -4.69642
C    -0.00552  -4.68230  -3.97091
C     0.10573  -4.46209  -2.46571
C     1.23999  -3.49876  -2.13226
H     1.99953  -1.56455  -2.71058
H     1.76955   3.76676   1.75030
H     2.19615  -3.95559  -2.39978
H    -0.98370   3.39703  -0.41602
H    -0.83607  -4.06348  -2.08039
H     1.29841   3.55488   0.05776
H     2.47582   1.01981   3.70592
H     0.80355  -1.45539  -4.90910
H    -1.38207  -1.97962  -2.30549
H    -1.46020   3.99189   1.18172
H     0.28495  -5.41452  -1.96347
H    -2.48713   2.83699   0.31652
H     1.25019  -3.30552  -1.05517
H    -3.32918   1.06468   1.31144
H    -0.24527  -0.63299   4.44671
H     0.47817  -1.71307   3.24622
H     2.63632   2.61610   0.72201
H    -1.14115  -2.89352  -4.37133
H     2.46810  -0.55001   2.89038
H     1.88177  -2.84835  -4.77394
H    -0.83980  -5.35247  -4.18637
H    -0.52443  -0.33647  -3.29822
H    -0.27203  -3.52482  -5.77298
H    -1.27249  -1.49499   3.29090
H    -2.90339  -0.48977   2.02502
H     3.15312   0.85959   2.07928
H    -3.03582   0.94560   3.05449
H     0.90810  -5.15746  -4.33620
O     1.46906  -0.75029   0.03788
