28

Re    0.00000   0.00000   0.00000
Br    1.68675  -1.35300   1.09536
O     0.21805  -0.54053  -1.54744
N    -1.77072   1.22944  -0.63073
C    -2.67529   1.23004   0.33684
C    -3.87917   1.89893   0.23400
H    -4.57616   1.87479   1.05555
C    -4.11883   2.60738  -0.93463
H    -5.03742   3.16176  -1.05150
C    -3.16440   2.60352  -1.94234
H    -3.31995   3.14880  -2.85871
C    -1.99023   1.89373  -1.75271
H    -1.20141   1.85238  -2.49014
C    -2.20077   0.41277   1.55355
O    -0.86078   0.52266   1.60835
O    -2.86101   0.78762   2.72386
H    -2.19645   1.09667   3.35362
N    -1.58648  -1.54553   0.36786
C    -2.52433  -1.03840   1.15389
C    -3.63508  -1.75641   1.55138
H    -4.36296  -1.29868   2.20085
C    -3.74009  -3.06747   1.10971
H    -4.58063  -3.67343   1.41149
C    -2.75184  -3.59160   0.28804
H    -2.80351  -4.60786  -0.06666
C    -1.67894  -2.79084  -0.06689
H    -0.87057  -3.13440  -0.69640
O     0.99946   1.31162  -0.05693
