64

Pd    0.00000   0.00000   0.00000
N    -0.65522   2.03694   1.97811
N    -1.94670   2.26748   0.27087
N     1.07556  -1.61653  -0.79158
C    -0.99905   1.47784   0.80734
C    -1.36306   3.19212   2.16992
H    -1.23703   3.80747   3.03708
C    -2.17647   3.33700   1.09725
H    -2.87553   4.11136   0.86253
C     0.32218   1.48738   2.87956
H    -0.05024   1.51952   3.90446
H     1.25839   2.04614   2.81082
H     0.51340   0.44481   2.58057
C    -2.68740   1.96275  -0.94147
H    -3.75297   1.95566  -0.70352
H    -2.41012   0.93858  -1.21509
C    -2.37310   2.94289  -2.04985
C    -1.22277   2.74720  -2.82346
C    -0.80310   3.75248  -3.69886
C    -1.60809   4.87093  -3.92151
C    -2.83899   4.97814  -3.27134
C    -3.18602   4.05686  -2.27739
C    -0.40856   1.48887  -2.73003
H     0.35735   1.59130  -1.94546
H     0.09994   1.30132  -3.67169
H    -1.02881   0.60928  -2.51525
C     0.52235   3.60479  -4.39415
H     1.26848   3.21760  -3.70420
H     0.88450   4.55159  -4.77722
H     0.44019   2.91650  -5.23673
C    -1.12843   5.94656  -4.85856
H    -0.16580   6.32919  -4.52154
H    -1.80938   6.78785  -4.90148
H    -1.00383   5.55167  -5.86636
C    -3.78693   6.09565  -3.61955
H    -3.75697   6.30613  -4.68545
H    -3.53066   7.00885  -3.08072
H    -4.81108   5.83453  -3.37510
C    -4.45508   4.30426  -1.50132
H    -5.32513   4.09469  -2.12530
H    -4.50553   5.34563  -1.18851
H    -4.53962   3.69115  -0.61164
C    -1.47262  -1.34616   0.15459
C    -2.65350  -1.30331   0.89208
H    -2.94237  -0.39302   1.40650
C    -3.48941  -2.40664   0.98522
H    -4.40237  -2.34155   1.56142
C    -3.15859  -3.58914   0.34941
H    -3.80654  -4.45062   0.42429
C    -1.98587  -3.66343  -0.38157
H    -1.71448  -4.58506  -0.88017
C    -1.15545  -2.55735  -0.47684
C     0.10870  -2.60017  -1.29856
H    -0.13920  -2.33492  -2.33521
H     0.55169  -3.60970  -1.30994
C     2.08219  -1.31858  -1.80506
H     2.76596  -0.55936  -1.42302
H     1.59908  -0.92679  -2.70214
H     2.65489  -2.21867  -2.07074
C     1.73581  -2.13043   0.41062
H     0.98498  -2.41573   1.15639
H     2.38465  -1.35196   0.82584
H     2.34999  -3.01325   0.17474
O     1.33365   0.97135   0.01921
