41

Ag    0.00000   0.00000   0.00000
N     1.09293  -2.14702   2.00186
N    -0.07945  -0.66733   3.05910
N     0.09609   1.80418   5.13590
N     1.12199  -5.22324   1.02177
C     0.36766  -1.02015   1.83467
C     0.36474  -1.55288   4.01378
C     1.10359  -2.52791   3.32388
C     1.67071  -3.60741   3.98540
H     2.20768  -4.37369   3.45038
C     1.49432  -3.66142   5.35418
H     1.91859  -4.48466   5.90822
C     0.78444  -2.67689   6.04348
H     0.68465  -2.75765   7.11502
C     0.20452  -1.60678   5.39071
H    -0.33306  -0.83901   5.92299
C    -0.86372   0.50888   3.34297
H    -1.59599   0.27086   4.11752
H    -1.37634   0.80657   2.42043
C     0.02930   1.62762   3.82410
C     0.76320   2.38905   2.92225
H     0.67452   2.20804   1.85561
C     1.59495   3.37835   3.41844
H     2.17726   3.99209   2.74737
C     1.66125   3.56750   4.79086
H     2.29397   4.32903   5.21861
C     0.88997   2.75166   5.60379
H     0.90330   2.85579   6.68070
C     1.71950  -2.88892   0.93584
H     2.67607  -3.28072   1.28830
H     1.88102  -2.20445   0.09453
C     0.83398  -4.03542   0.50928
C    -0.24423  -3.82242  -0.34149
H    -0.43976  -2.83098  -0.73798
C    -1.04779  -4.90091  -0.67006
H    -1.89231  -4.77365  -1.33088
C    -0.74422  -6.14529  -0.13804
H    -1.34274  -7.01189  -0.37047
C     0.35302  -6.24969   0.70251
H     0.63542  -7.19603   1.14461
O    -0.28524   0.78942  -1.42055
