33

Mn    0.00000   0.00000   0.00000
C    -1.40668  -0.99275  -0.46955
O    -2.29930  -1.63788  -0.78623
C    -0.99995   1.47062  -0.12238
O    -1.67839   2.39547  -0.21919
C     0.50514   0.13914  -1.69098
O     0.80618   0.22900  -2.79819
N     1.82535   0.93367   0.61530
C     2.80402   0.22794   1.19228
C     2.61611  -1.24041   1.42262
S     1.49857  -2.06786   0.24561
C     2.43342  -2.15700  -1.26951
C     1.88824  -2.96531  -2.26058
C     2.52995  -3.08509  -3.47728
C     3.71708  -2.40705  -3.70611
C     4.25613  -1.60787  -2.71408
C     3.61916  -1.47660  -1.49104
C     3.98266   0.82156   1.63656
C     4.15679   2.18415   1.49283
C     3.13869   2.91340   0.89758
C     2.00271   2.25089   0.47570
H     2.11649  -1.38785   2.38802
H     3.56527  -1.77760   1.42913
H     0.95872  -3.48197  -2.07078
H     2.10139  -3.70741  -4.24765
H     4.21801  -2.49799  -4.65745
H     5.17793  -1.07291  -2.88760
H     4.05005  -0.83485  -0.73696
H     4.74287   0.20963   2.09747
H     5.06023   2.66348   1.83630
H     3.21867   3.97929   0.76104
H     1.19750   2.80044   0.00504
O    -0.34026  -0.19211   1.60306
