64

C    -1.32881   1.03303  -1.07498
C    -3.66719   1.45493  -1.71131
H    -3.77851   1.34700  -2.79633
H    -4.59402   1.12514  -1.23341
C    -3.34833   2.89712  -1.34960
H    -3.28180   2.99062  -0.26380
H    -4.12191   3.56978  -1.71888
C    -1.99907   3.23145  -1.96547
H    -1.66579   4.22963  -1.66628
H    -2.05378   3.19699  -3.06005
C    -2.91466  -0.74731  -0.96219
C    -3.34191  -1.56981  -2.01938
C    -3.65209  -2.89805  -1.75995
H    -3.97482  -3.55142  -2.55514
C    -3.53708  -3.40601  -0.47530
H    -3.77678  -4.44409  -0.29789
C    -3.12328  -2.59667   0.56422
H    -3.04239  -2.99130   1.56497
C    -2.81614  -1.26649   0.31988
H    -2.52873  -0.61281   1.13076
C    -3.79261  -1.77929  -4.35177
H    -3.10577  -2.61712  -4.50876
H    -3.75693  -1.12001  -5.21804
H    -4.81169  -2.16105  -4.23132
C     0.33807   2.67494  -1.51394
C     0.96708   2.83701  -2.76027
C     2.30294   3.21414  -2.79866
H     2.81327   3.33373  -3.74148
C     3.00108   3.43036  -1.62108
H     4.04123   3.71684  -1.67303
C     2.37776   3.28687  -0.39711
H     2.92061   3.47110   0.51717
C     1.04371   2.91051  -0.34445
H     0.53347   2.82096   0.60365
C     0.79463   2.67273  -5.13197
H     1.14908   3.68676  -5.34421
H     0.01327   2.40969  -5.84369
H     1.62582   1.96761  -5.23351
C     1.29613  -0.56796  -1.58556
H     1.20930   0.14000  -2.40725
C     0.27081  -1.50562  -1.45407
H    -0.52129  -1.48133  -2.20144
C     0.41998  -2.86033  -0.80039
H     0.96204  -3.53215  -1.47694
H    -0.58169  -3.27599  -0.66510
C     1.12932  -2.80669   0.56596
H     0.75625  -3.62408   1.18684
H     2.20314  -2.95916   0.44300
C     0.89735  -1.49539   1.28336
H     0.25837  -1.55885   2.16432
C     1.74552  -0.41138   1.18220
H     1.75627   0.30620   2.00297
C     2.97766  -0.35551   0.30854
H     3.77139  -0.96024   0.76237
H     3.32837   0.67893   0.28576
C     2.72043  -0.82114  -1.13701
H     2.94080  -1.88564  -1.23895
H     3.40209  -0.28513  -1.80156
N    -2.58522   0.60898  -1.23023
N    -1.02488   2.26645  -1.48180
O    -3.40299  -0.98838  -3.25681
O     0.19638   2.58815  -3.86259
Rh    0.00000   0.00000   0.00000
O    -0.66735   0.82649   1.26256
