69

Rh    0.00000   0.00000   0.00000
C    -1.94794  -0.05538  -0.45643
N    -2.51709   0.67520  -1.41578
C    -3.70420   0.25837  -2.14344
H    -3.63880   0.65237  -3.16121
H    -4.60655   0.67469  -1.67514
C    -3.76326  -1.26135  -2.14640
H    -4.65534  -1.61608  -2.66163
H    -2.87579  -1.65126  -2.64895
C    -3.74896  -1.72435  -0.69706
H    -4.65563  -1.39455  -0.17146
H    -3.69106  -2.81478  -0.63347
N    -2.57158  -1.16669  -0.05771
C    -2.05848  -1.85945   1.07710
C    -2.49946  -1.45637   2.34991
O    -3.38926  -0.41790   2.36636
C    -3.82465   0.07082   3.61116
H    -4.37101  -0.69234   4.17459
H    -4.49474   0.89900   3.38458
H    -2.98842   0.43909   4.21432
C    -2.02163  -2.11737   3.47261
H    -2.33236  -1.82103   4.46235
C    -1.13564  -3.17390   3.32956
H    -0.76968  -3.67478   4.21382
C    -0.72663  -3.58959   2.07671
H    -0.04360  -4.41873   1.97409
C    -1.19442  -2.93480   0.94793
H    -0.88838  -3.24401  -0.04003
C    -2.10096   2.02689  -1.62020
C    -1.24723   2.36852  -2.66892
C    -0.87985   3.70095  -2.81656
H    -0.20698   3.96923  -3.61890
C    -1.35100   4.68750  -1.96689
C    -2.22320   4.32627  -0.94860
H    -2.60603   5.08870  -0.28432
C    -2.60827   3.00830  -0.76121
C    -3.56019   2.65495   0.34566
H    -4.57880   2.59282  -0.04027
H    -3.54259   3.42004   1.11869
H    -3.30632   1.69603   0.79401
C    -0.94045   6.11989  -2.13121
H    -1.81400   6.74846  -2.30025
H    -0.26067   6.23680  -2.97113
H    -0.44397   6.47685  -1.22954
C    -0.74453   1.33876  -3.62779
H    -1.53737   1.02911  -4.30913
H    -0.40350   0.45230  -3.09473
H     0.07715   1.73348  -4.21927
C     0.08591   1.87246   0.97641
H    -0.79638   2.47205   0.76971
C    -0.03784   0.87006   1.93932
H    -1.02216   0.75053   2.38459
C     1.09977   0.40618   2.82557
H     1.76827   1.24812   3.01573
H     0.69452   0.09294   3.79088
C     1.87967  -0.77437   2.21686
H     2.91642  -0.76433   2.57243
H     1.42663  -1.70844   2.55971
C     1.86989  -0.78070   0.70593
H     1.98133  -1.77562   0.27310
C     2.14845   0.30843  -0.09467
H     2.43186   0.11862  -1.12992
C     2.56837   1.65655   0.44426
H     3.27650   2.11521  -0.24941
H     3.08905   1.51826   1.39322
C     1.36369   2.59641   0.62076
H     1.58045   3.35046   1.38678
H     1.18631   3.12967  -0.31763
O     0.05887  -1.05432  -1.26785
