57

Ti    0.00000   0.00000   0.00000
Cl    1.09773  -1.22182   1.52202
C    -0.90470  -2.17056  -0.62588
C    -1.78333  -1.15041  -1.07018
H    -2.82863  -1.04921  -0.80870
C    -1.11168  -0.35047  -2.01875
H    -1.57998   0.39715  -2.64538
C     0.19103  -0.87807  -2.18016
H     0.90676  -0.58344  -2.93673
C     0.32547  -1.97320  -1.30929
H     1.19118  -2.61824  -1.25158
C    -1.32394  -3.40845   0.15165
C    -0.11765  -4.29492   0.50028
H    -0.46665  -5.14239   1.08365
H     0.60360  -3.73295   1.08672
H     0.37447  -4.68121  -0.38695
C    -1.98095  -3.00420   1.47611
H    -2.80157  -2.30585   1.33208
H    -1.23222  -2.51965   2.10136
H    -2.34431  -3.88629   1.99755
N    -2.23071  -4.23483  -0.67376
C    -1.82059  -4.37563  -2.05585
H    -2.07861  -3.50008  -2.67251
H    -2.32382  -5.24829  -2.47481
H    -0.74880  -4.53674  -2.12351
C    -3.64948  -3.96765  -0.61187
H    -4.00080  -3.98816   0.41473
H    -4.15793  -4.76579  -1.15480
H    -3.94018  -3.01240  -1.07536
C     0.02679   2.39156  -0.11000
C     0.66533   1.86529  -1.25787
H     0.39569   2.07009  -2.28470
C     1.83709   1.17821  -0.85512
H     2.60201   0.78099  -1.51112
C     1.94987   1.31053   0.54115
H     2.78586   0.98213   1.14500
C     0.82791   2.01924   1.00557
H     0.66025   2.30668   2.03494
C    -1.08613   3.42918  -0.12617
C    -2.28402   2.88705  -0.91651
H    -3.08053   3.62665  -0.94136
H    -2.65382   1.99391  -0.41086
H    -2.01438   2.62660  -1.93682
C    -1.58994   3.74614   1.29076
H    -0.80909   4.17438   1.91095
H    -1.96448   2.84504   1.76824
H    -2.39442   4.47306   1.21938
N    -0.59191   4.70353  -0.68938
C    -0.69012   4.91142  -2.11540
H    -0.03419   4.25451  -2.70808
H    -0.39187   5.94044  -2.31873
H    -1.71611   4.79306  -2.45168
C     0.72628   5.08558  -0.22482
H     0.82489   4.89795   0.84001
H     0.85358   6.15519  -0.39660
H     1.53688   4.55311  -0.74597
O    -1.22388   0.24101   1.08006
