38

H    -1.32846  -0.66840   2.19028
H     1.85558  -1.53186  -1.01495
Pd    0.00000   0.00000   0.00000
O    -2.16584   3.35228   0.62450
O     2.22555  -0.79197  -1.58216
N    -1.57571  -0.16710   1.33292
N    -0.54288   1.89214  -0.09151
N    -0.04877   2.80306  -0.89536
N     1.42622   0.30069  -1.31327
C    -2.85665  -0.59114  -0.71851
C    -3.69103  -1.40336  -1.46353
C    -4.14212  -2.62326  -0.96870
C    -3.74044  -3.01059   0.30211
C    -2.91558  -2.20328   1.06516
C    -2.46083  -0.99255   0.55926
C    -2.08782   1.17715   1.64193
C    -1.61816   2.27288   0.66100
C     0.93247   2.62854  -1.70498
C     1.30349   3.84855  -2.49699
C     1.70512   1.40613  -1.92336
C     2.85069   1.47146  -2.88704
C    -5.01628  -3.50570  -1.80383
H    -2.52614   0.36396  -1.12539
H    -3.99123  -1.08781  -2.45176
H    -4.07406  -3.95544   0.70446
H    -2.60394  -2.52885   2.04831
H    -1.73478   1.48573   2.63177
H    -3.18469   1.18588   1.65716
H     1.21956   3.66351  -3.56601
H     2.32254   4.16336  -2.28123
H     0.62378   4.64959  -2.22314
H     3.56245   2.23253  -2.57564
H     3.35278   0.50895  -2.92721
H     2.49207   1.72673  -3.88179
H    -5.57641  -4.19978  -1.18256
H    -5.71317  -2.91412  -2.39312
H    -4.40304  -4.08638  -2.49319
O     0.37982  -1.59399   0.19349
