39

Zn    0.00000   0.00000   0.00000
Br    1.88444  -1.33092   0.57703
O     1.57991   0.31439  -4.10204
N    -0.96732  -0.39181   2.00021
N    -0.26557   1.90915   0.94650
N     1.17017   1.51183  -1.51126
C    -1.44017   0.71847   2.57046
C    -2.10839   0.67832   3.79111
H    -2.45725   1.58246   4.26307
C    -2.29713  -0.54732   4.40996
H    -2.81197  -0.60293   5.35731
C    -1.81469  -1.69146   3.79799
H    -1.94431  -2.66423   4.24329
C    -1.14596  -1.55788   2.58929
H    -0.73250  -2.41809   2.08011
C    -1.17052   1.96866   1.84006
C    -1.94310   3.20466   2.16977
H    -1.36176   3.83779   2.84151
H    -2.89169   2.96594   2.63962
H    -2.14015   3.77050   1.26083
C     0.13129   3.03691   0.15879
H     0.35422   3.90329   0.79302
H    -0.68076   3.31790  -0.52337
C     1.38378   2.65920  -0.62867
H     1.73119   3.53430  -1.19897
H     2.16196   2.38393   0.08884
C     2.47821   1.02397  -1.97142
H     3.05334   0.66482  -1.11697
H     3.03064   1.84388  -2.45479
C     2.30939  -0.11114  -2.97779
H     3.28522  -0.43918  -3.33773
H     1.80184  -0.96222  -2.49923
C     0.30653   0.75333  -3.69972
H    -0.25375  -0.08258  -3.25903
H    -0.21197   1.08769  -4.59932
C     0.39687   1.90455  -2.69688
H     0.88017   2.76446  -3.18629
H    -0.61591   2.18467  -2.40500
O    -1.47850  -0.00999  -0.73242
