64

Pd    0.00000   0.00000   0.00000
Cl    1.03153   1.56174   1.21470
N    -0.95048  -1.38176  -1.13028
C    -1.21978  -1.20646  -2.36760
C    -0.60731  -0.00019  -3.08052
C    -0.89578  -0.00018  -4.58478
C     0.93298  -0.00026  -2.93385
C    -2.19599  -2.06781  -3.10976
C    -1.42086  -2.46812  -0.37032
C    -2.28007  -2.17681   0.68960
C    -2.75159  -3.18126   1.50792
C    -2.34666  -4.48743   1.28576
C    -1.46506  -4.77014   0.26075
C    -0.98671  -3.78122  -0.59103
C     0.05355  -4.11292  -1.63447
C    -0.38239  -5.26776  -2.53899
C     1.37541  -4.43443  -0.93184
H    -0.44541   0.87656  -5.04365
H    -1.95509  -0.00016  -4.81882
H     1.26547  -0.00026  -1.87729
H     1.34308   0.88335  -3.41946
H    -1.72226  -2.55727  -3.95804
H    -3.01783  -1.46133  -3.48771
H    -2.60230  -2.82803  -2.44645
H    -2.56336  -1.14148   0.86614
H    -3.41755  -2.94492   2.32364
H    -2.69872  -5.28033   1.92798
H    -1.12913  -5.78625   0.12328
H     0.22253  -3.23277  -2.26247
H     0.34211  -5.40442  -3.33901
H    -1.35657  -5.07324  -2.98396
H    -0.44317  -6.19779  -1.98080
H     1.65530  -3.60726  -0.28297
H     2.16282  -4.59484  -1.66521
H     1.27978  -5.32944  -0.32282
C    -1.21985   1.20610  -2.36769
N    -0.95061   1.38148  -1.13039
C    -1.42104   2.46786  -0.37048
C    -2.28021   2.17652   0.68948
C    -2.75165   3.18093   1.50789
C    -2.34663   4.48707   1.28582
C    -1.46510   4.76982   0.26074
C    -0.98682   3.78093  -0.59112
C     0.05351   4.11261  -1.63447
C    -0.38235   5.26749  -2.53896
H     0.34219   5.40419  -3.33891
H    -1.35648   5.07298  -2.98400
H    -0.44318   6.19749  -1.98078
C     1.37538   4.43405  -0.93184
H     1.65518   3.60695  -0.28291
H     2.16286   4.59440  -1.66513
H     1.27977   5.32906  -0.32288
H     0.22245   3.23247  -2.26248
H    -1.12911   5.78590   0.12332
H    -2.69863   5.27995   1.92811
H    -3.41757   2.94456   2.32364
H    -2.56347   1.14117   0.86605
C    -2.19606   2.06743  -3.10985
H    -1.72233   2.55691  -3.95813
H    -3.01787   1.46090  -3.48776
H    -2.60237   2.82762  -2.44650
H    -0.44545  -0.87694  -5.04365
H     1.34297  -0.88395  -3.41941
O     0.76246  -1.15535   0.89795
