47

Hg    0.00000   0.00000   0.00000
Br   -1.12114  -1.73888   1.54753
S    -2.54276   0.82400  -1.12056
S     0.17454   2.05628   1.71316
N    -2.69842  -1.82073  -1.48450
H    -2.62395  -2.00098  -0.48820
N    -2.69241  -0.73916  -3.37793
N    -2.39396   1.42732   2.18157
H    -2.63588   1.51214   1.19959
N    -1.18579   1.29000   3.98737
C    -2.63337  -0.59305  -2.03690
C    -2.76418  -2.75645  -2.47585
H    -2.79824  -3.80528  -2.27036
C    -2.76535  -2.08445  -3.64819
H    -2.80389  -2.47294  -4.64147
C    -2.66195   0.34511  -4.37164
C    -2.72028  -0.24124  -5.78119
H    -3.63927  -0.80065  -5.94240
H    -1.86161  -0.87930  -5.97508
H    -2.69720   0.57673  -6.49619
C    -1.35896   1.13017  -4.21363
H    -1.31209   1.61849  -3.24432
H    -1.29674   1.89614  -4.98099
H    -0.50320   0.46585  -4.30895
C    -3.88234   1.24127  -4.14438
H    -3.85500   1.68595  -3.15383
H    -4.80094   0.66591  -4.24362
H    -3.89028   2.04124  -4.87884
C    -1.14504   1.56011   2.66547
C    -2.48107   0.96674   4.30958
H    -2.78148   0.69685   5.29758
C    -3.23097   1.04508   3.18742
H    -4.27079   0.85440   3.02701
C    -0.03582   1.27262   4.90473
C    -0.49435   0.87089   6.30596
H    -1.22047   1.57595   6.70429
H     0.36941   0.87365   6.96534
H    -0.91469  -0.13187   6.30982
C     0.57129   2.67627   4.95422
H    -0.16403   3.39553   5.30930
H     0.91283   2.98464   3.97064
H     1.42098   2.68331   5.63060
C     0.97574   0.24293   4.39685
H     0.49864  -0.72798   4.27875
H     1.79263   0.14692   5.10598
H     1.39177   0.54705   3.44035
O     0.67529  -0.62383  -1.37015
