62

Ru    0.00000   0.00000   0.00000
Cl   -0.64759  -0.16249   2.25180
P    -2.24709   0.04992  -0.36767
O     1.95147   1.12395   1.63122
H     1.25392   1.62029   2.08461
C     2.35835  -1.25576   0.06642
H     3.09432  -1.46563   0.82916
C     1.18569  -2.05341   0.01112
H     1.07165  -2.86314   0.72435
C     0.33402  -1.97817  -1.10104
H    -0.41617  -2.74049  -1.28479
C     0.51705  -0.92671  -2.02589
H    -0.07833  -0.88366  -2.93080
C     1.51395   0.02830  -1.78666
H     1.64365   0.84301  -2.49284
C     2.53062  -0.20296  -0.81250
C     3.76234   0.66832  -0.80920
H     3.57549   1.52057  -1.47344
C     4.09985   1.22678   0.57882
H     4.96778   1.88209   0.48664
H     4.35811   0.41488   1.26015
C     2.95018   2.02195   1.19510
H     3.33001   2.59444   2.05330
H     2.53531   2.72819   0.46253
C     4.94320  -0.13267  -1.37005
H     4.71527  -0.50133  -2.36850
H     5.16646  -0.98441  -0.73157
H     5.82804   0.49636  -1.42779
C    -3.26808   1.46799   0.15804
C    -4.14974   2.10632  -0.70912
H    -4.21941   1.80211  -1.74401
C    -4.94001   3.14488  -0.24878
H    -5.61840   3.63953  -0.92930
C    -4.86206   3.55033   1.07226
H    -5.47833   4.36481   1.42432
C    -3.99161   2.91011   1.93916
H    -3.92674   3.22321   2.97058
C    -3.19878   1.87154   1.48885
H    -2.51031   1.37508   2.15802
C    -3.24448  -1.33378   0.27126
C    -2.64645  -2.41155   0.91005
H    -1.57625  -2.40937   1.06527
C    -3.42116  -3.45947   1.37600
H    -2.95309  -4.29197   1.88045
C    -4.79457  -3.43719   1.20297
H    -5.39938  -4.25361   1.56944
C    -5.39603  -2.36199   0.56711
H    -6.46825  -2.34137   0.43683
C    -4.62716  -1.31133   0.10385
H    -5.09314  -0.46783  -0.38709
C    -2.52605  -0.01203  -2.16272
C    -3.07735  -1.10730  -2.81610
H    -3.43264  -1.95415  -2.24573
C    -3.17500  -1.10827  -4.19809
H    -3.60706  -1.95993  -4.70342
C    -2.71957  -0.02558  -4.93137
H    -2.79823  -0.03227  -6.00860
C    -2.15643   1.06464  -4.28330
H    -1.79560   1.90672  -4.85549
C    -2.05218   1.07036  -2.90584
H    -1.60157   1.90592  -2.38393
O    -0.19395   1.63808  -0.03971
