50

Pd    0.00000   0.00000   0.00000
O     1.80711  -2.79645   0.49151
N    -1.80415   0.05543  -0.72622
P     2.43021  -1.34030   0.19497
C     0.52768  -3.04032  -0.02180
O     1.85251  -0.23784   1.01111
C    -0.31200  -1.96787  -0.27958
C    -1.54043  -2.24459  -0.91555
C    -1.91436  -3.55273  -1.23395
H    -2.85622  -3.74259  -1.72717
C    -1.06997  -4.59412  -0.90530
H    -1.35298  -5.61179  -1.12764
C     0.15882  -4.34668  -0.30317
H     0.83095  -5.15608  -0.06072
C     4.16209  -1.61289   0.61182
C     4.82203  -2.79108   0.29313
H     4.28566  -3.59290  -0.19075
C     6.15850  -2.93352   0.61885
H     6.67639  -3.85104   0.38131
C     6.83356  -1.90040   1.25036
H     7.87717  -2.01663   1.50281
C     6.17451  -0.72177   1.56111
H     6.70255   0.08045   2.05433
C     4.83721  -0.57527   1.23887
H     4.29669   0.32899   1.47708
C     2.23949  -1.09642  -1.60918
C     1.97885   0.18715  -2.09401
H     2.01548   1.04536  -1.42473
C     1.73379   0.36719  -3.44625
H     1.52594   1.35752  -3.82260
C     1.76148  -0.71824  -4.31017
H     1.56070  -0.57517  -5.36149
C     2.06133  -1.98268  -3.83197
H     2.10016  -2.82359  -4.50831
C     2.30269  -2.17466  -2.48193
H     2.52260  -3.16290  -2.10484
C    -2.32592  -1.06171  -1.11859
H    -3.34312  -1.09616  -1.50539
C    -2.55662   1.23615  -0.70837
C    -2.62384   1.94001   0.49551
H    -2.09110   1.55045   1.36065
C    -3.36194   3.10409   0.56609
H    -3.40947   3.65214   1.49450
C    -4.02794   3.57610  -0.55507
H    -4.59172   4.49513  -0.50025
C    -3.96550   2.87480  -1.74688
H    -4.48055   3.24417  -2.62119
C    -3.23907   1.69977  -1.82764
H    -3.16627   1.15728  -2.75963
O     0.25168   1.62827   0.08888
