31

Pd    0.00000   0.00000   0.00000
Cl   -2.03722  -1.05569  -0.18744
N    -1.00508   1.48927   1.00469
H    -0.98705   2.42365   0.58960
H    -1.95702   1.09821   0.98573
C    -0.43965   1.48002   2.31666
C     0.07835   2.63420   2.88675
H     0.05024   3.56658   2.34034
C     0.65764   2.58071   4.14410
H     1.06909   3.47896   4.57878
C     0.71273   1.38481   4.83657
H     1.16776   1.34737   5.81440
C     0.19399   0.23057   4.26829
H     0.24513  -0.70504   4.80442
C    -0.37984   0.26985   3.01163
H    -0.78807  -0.63347   2.55231
N     1.00515  -1.48947  -1.00442
H     0.98718  -2.42388  -0.58938
H     1.95706  -1.09836  -0.98544
C     0.43975  -1.48020  -2.31642
C    -0.07833  -2.63434  -2.88653
H    -0.05026  -3.56674  -2.34015
C    -0.65763  -2.58080  -4.14387
H    -1.06917  -3.47901  -4.57855
C    -0.71264  -1.38488  -4.83632
H    -1.16771  -1.34739  -5.81413
C    -0.19380  -0.23069  -4.26804
H    -0.24486   0.70493  -4.80416
C     0.38003  -0.27002  -3.01138
H     0.78837   0.63324  -2.55207
O     1.46030   0.75626   0.13446
