44

Rh    0.00000   0.00000   0.00000
P    -0.85105   1.45923  -1.58188
C     0.43547  -1.16063   1.40592
O     0.54599  -1.82384   2.32626
C     1.54684  -0.21987  -0.96487
O     2.53016  -0.40776  -1.52803
C     0.44896   2.22092  -2.66055
H     0.89436   1.38951  -3.21371
H     0.00865   2.90921  -3.38433
C     1.54548   2.89111  -1.85925
H     1.68130   2.45912  -0.86898
C     2.79537   3.33406  -2.56136
H     3.74459   3.18995  -2.06952
H     2.84124   3.21580  -3.63369
C     1.84544   4.35185  -2.00799
H     1.26482   4.92868  -2.71338
H     2.14352   4.91462  -1.13589
C    -1.80567   2.96524  -0.93594
C    -0.98463   3.44503   0.26793
H    -0.05028   3.90050  -0.04946
H    -0.76073   2.61045   0.93926
H    -1.54830   4.18685   0.83143
C    -1.93462   4.11043  -1.93982
H    -2.54653   4.89466  -1.49534
H    -2.41602   3.79665  -2.86142
H    -0.96726   4.54480  -2.17311
C    -3.19518   2.55973  -0.44429
H    -3.64605   3.39508   0.09073
H    -3.12849   1.72026   0.24334
H    -3.85580   2.30266  -1.26856
C    -1.86638   0.44922  -2.82603
C    -0.88994  -0.45121  -3.59237
H    -0.18615  -0.92603  -2.90365
H    -0.33676   0.09656  -4.35146
H    -1.44611  -1.24013  -4.09710
C    -2.67993   1.26609  -3.82489
H    -3.14738   0.59249  -4.54281
H    -2.04574   1.95475  -4.37974
H    -3.47126   1.82689  -3.33572
C    -2.77212  -0.47028  -2.00323
H    -3.49315   0.08601  -1.41284
H    -2.15984  -1.07062  -1.31809
H    -3.31739  -1.14857  -2.65852
O    -1.29218   0.02797   1.02567
