31

Pd    0.00000   0.00000   0.00000
N     0.66152   1.78754  -0.19890
O     2.30584  -0.24419  -0.36352
O     3.13761   0.78332   1.57008
O    -2.47776   2.66470  -1.29603
C    -1.81007   0.92515   0.23252
H    -2.73661   0.40093  -0.01689
H    -1.77686   1.15769   1.31188
C    -1.64596   2.16110  -0.57100
C    -0.25384   2.73204  -0.45260
C     0.10362   4.05805  -0.63448
H    -0.65702   4.78714  -0.86281
C     1.44259   4.39760  -0.51195
H     1.76226   5.42160  -0.62607
C     2.37954   3.40502  -0.24890
H     3.42064   3.66181  -0.14955
C     1.96092   2.08849  -0.11696
C     2.91990   0.92407   0.18276
C     4.30310   1.15118  -0.43434
H     4.78898   1.98993   0.05195
H     4.20613   1.33773  -1.50017
H     4.91861   0.27196  -0.27110
C     2.00174   0.60813   2.40364
H     1.42999   1.54122   2.49788
H     2.40706   0.33966   3.37747
H     1.33725  -0.21332   2.05468
C     2.98940  -1.47947  -0.15463
H     3.70159  -1.65821  -0.96520
H     2.21931  -2.25453  -0.16267
H     3.50447  -1.48147   0.80868
O    -0.45661  -1.57675   0.16694
