54

Pt    0.00000   0.00000   0.00000
N    -0.19894  -2.17830  -0.39991
N     1.96463  -0.93249   0.78877
C     3.05615  -0.26657   1.17316
C    -0.27661  -4.94267  -0.34506
H    -0.30742  -6.02106  -0.30952
C     3.38127  -2.60237  -0.17957
H     3.46118  -3.52518  -0.73251
C     1.97358   0.96946   3.05006
H     1.33419   0.12519   3.24431
C     1.07565   0.32455  -1.73675
H     1.13960  -0.61937  -2.28571
H     2.09057   0.64552  -1.49255
H     0.64303   1.07102  -2.39928
C     0.90442  -4.26727  -0.09999
H     1.80387  -4.80632   0.15202
C     6.20197  -3.66728  -0.20893
H     5.48355  -4.38703   0.15474
C     2.12963  -2.10588   0.16187
C     4.34093  -0.68436   0.83941
H     5.17486  -0.08230   1.16167
C    -1.33219  -2.82711  -0.62706
H    -2.20794  -2.21922  -0.80922
C     0.91028  -2.87379  -0.14110
C     2.91143   0.92810   2.02166
N     3.77100   1.91920   1.78875
C     5.85986  -2.31660  -0.27101
C    -1.42032  -4.20764  -0.61829
H    -2.36525  -4.69107  -0.80523
C    -1.69514   0.51843  -1.05089
H    -1.77031  -0.16119  -1.90455
H    -1.69758   1.53900  -1.43006
H    -2.56646   0.39427  -0.40613
C     8.40201  -3.16192  -1.02373
C     4.52204  -1.86290   0.12585
C     0.28114   1.99939   0.41951
H    -0.13347   2.67602  -0.32819
H     1.35234   2.20229   0.48326
H    -0.17864   2.23816   1.38091
C     7.46199  -4.09113  -0.57640
H     7.72870  -5.13607  -0.51983
N    10.73685  -3.94900  -1.71891
C     6.80834  -1.39410  -0.71342
H     6.54535  -0.34906  -0.77893
C     8.06799  -1.80862  -1.09206
H     8.79927  -1.09497  -1.44121
C     1.89454   2.11665   3.82149
H     1.16794   2.18490   4.61717
C     2.75719   3.16625   3.55010
H     2.72049   4.08254   4.11801
C     9.69279  -3.59372  -1.40763
C     3.68614   3.00587   2.53077
H     4.39792   3.78560   2.29177
O    -0.82622  -0.34932   1.38486
