56

Pt    0.00000   0.00000   0.00000
N     0.03237  -0.79845  -2.07908
N     1.96075   0.80446  -0.92198
N     3.35933   2.69682   1.72731
C     0.14132   0.80261   1.89269
H    -0.83534   1.05110   2.31145
H     0.70195   1.73668   1.79140
H     0.66025   0.16131   2.60724
C    -1.84955  -0.70246   0.57079
H    -1.80505  -1.50848   1.30317
H    -2.34084  -1.06101  -0.33831
H    -2.45673   0.10491   0.97991
C     0.81912  -1.81542   0.56035
H     1.05841  -1.90162   1.61903
H     1.73855  -1.95894  -0.01378
H     0.14609  -2.63725   0.30650
C    -0.69730  -1.77783  -2.59181
H    -1.40674  -2.25145  -1.92636
C    -0.58309  -2.19452  -3.90600
H    -1.20910  -2.98835  -4.28037
C     0.35376  -1.57175  -4.71633
H     0.48367  -1.87350  -5.74470
C     1.12550  -0.55847  -4.18033
H     1.88140  -0.07270  -4.77619
C     0.93090  -0.18167  -2.85176
C     1.73071   0.89346  -2.24049
C     2.20274   1.94533  -3.01420
H     1.93333   2.01340  -4.05573
C     2.92534   2.97397  -2.41260
C     3.21742   2.83252  -1.06073
H     3.80866   3.56057  -0.53002
C     2.74010   1.73079  -0.35848
C     3.15044   1.57180   1.04728
C     3.37551   0.31247   1.60029
H     3.24624  -0.57387   1.00267
C     3.78178   0.23460   2.92098
H     3.96027  -0.72643   3.38183
C     3.95645   1.40645   3.63945
H     4.26059   1.38884   4.67421
C     3.74138   2.61172   2.98516
H     3.88230   3.55776   3.49167
C     3.36570   4.14620  -3.17179
C     3.33055   5.41156  -2.59162
H     2.95213   5.52671  -1.58728
C     3.73713   6.52120  -3.30696
H     3.69116   7.49689  -2.84533
C     4.20104   6.40097  -4.61069
C     4.24101   5.13450  -5.18537
H     4.60306   5.02289  -6.19765
C     3.82385   4.02310  -4.48219
H     3.87913   3.04719  -4.94332
C     4.65564   7.59594  -5.38941
H     4.47991   8.51358  -4.83436
H     4.12658   7.65458  -6.33944
H     5.72088   7.52097  -5.60738
O    -0.67655   1.38911  -0.57893
