50

Pd    0.00000   0.00000   0.00000
O     0.67312  -2.14792  -0.55413
N     1.91026   0.28879  -0.37317
C    -0.29924   1.91808   0.33705
N    -1.35776   2.23837   1.10133
H    -2.09150   1.53356   1.18056
C     0.48676   2.88087  -0.24316
H     0.12387   3.90452  -0.23901
C     1.75982   2.73489  -0.85958
O     2.34585   3.65521  -1.42942
C     2.51071   1.42929  -0.71738
C     3.88831   1.48094  -0.93344
H     4.31223   2.42823  -1.22858
C     4.65358   0.34824  -0.75161
H     5.72431   0.37155  -0.88231
C     4.01424  -0.83143  -0.39521
H     4.56603  -1.74292  -0.22803
C     2.63702  -0.82889  -0.24782
C     1.90966  -2.12110   0.14973
C     2.85624  -3.54111  -1.52649
H     1.91892  -3.82742  -2.01003
H     3.55320  -4.37531  -1.56083
H     3.27758  -2.68308  -2.05674
O     2.66766  -3.26506  -0.14632
C     1.70424  -2.09505   1.67655
H     1.34632  -3.06262   2.01854
H     0.96877  -1.30918   1.92792
H     2.65130  -1.88115   2.16473
C    -0.17942  -3.25038  -0.24158
H     0.40675  -4.16341  -0.11418
H    -0.85475  -3.35620  -1.09093
H    -0.76834  -3.05368   0.65989
C    -1.65630   3.51351   1.61783
C    -0.73573   4.19074   2.42319
C    -1.09304   5.43263   2.93257
H    -0.38805   5.96827   3.55135
C    -2.33278   5.98225   2.66768
H    -2.59229   6.94935   3.07138
C    -3.24607   5.28834   1.89248
H    -4.21780   5.71533   1.69214
C    -2.92424   4.05026   1.36159
C    -3.89373   3.28895   0.51047
H    -4.76445   3.89830   0.28400
H    -4.23092   2.38680   1.02234
H    -3.42563   2.98271  -0.42416
C     0.59631   3.59429   2.75901
H     0.53575   2.50645   2.80584
H     0.94688   3.97398   3.71589
H     1.33340   3.85098   1.99730
O    -1.56947  -0.42936   0.27370
