47

Au    0.00000   0.00000   0.00000
P    -1.77839  -0.48329   1.28005
N    -5.13753   2.00167  -1.19441
C    -5.09932   1.99761   0.12531
H    -6.03638   1.78327   0.62146
N    -4.06544   2.21619   0.91811
C    -2.94691   2.49045   0.23594
C    -2.84093   2.52474  -1.16155
C    -4.01677   2.24888  -1.88154
N    -4.05279   2.20048  -3.22186
H    -4.93865   2.09009  -3.68209
H    -3.23500   2.47300  -3.73774
N    -1.55727   2.85225  -1.51352
C    -0.92496   3.00329  -0.39193
H     0.10949   3.27511  -0.32046
N    -1.70911   2.80544   0.71741
C    -1.39058   2.96284   2.11053
H    -2.23989   3.46899   2.58194
H    -0.49855   3.58556   2.20532
C    -1.16120   1.61337   2.81283
H    -0.18242   1.20546   2.53243
H    -1.16392   1.78404   3.89484
N    -2.17878   0.62555   2.48396
H    -3.08531   1.07211   2.31217
C    -3.34909  -0.82508   0.45034
C    -3.40221  -0.82481  -0.93659
H    -2.50752  -0.59825  -1.50346
C    -4.59743  -1.10154  -1.57652
H    -4.64284  -1.09600  -2.65495
C    -5.73150  -1.37695  -0.83244
H    -6.66488  -1.58544  -1.33289
C    -5.67511  -1.38499   0.55320
H    -6.56212  -1.60425   1.12904
C    -4.48496  -1.11522   1.19983
H    -4.42292  -1.12576   2.27942
C    -1.55498  -2.02079   2.22201
C    -1.67986  -2.09231   3.60196
H    -1.93440  -1.20351   4.16102
C    -1.47313  -3.30062   4.24458
H    -1.56753  -3.36046   5.31896
C    -1.14292  -4.43012   3.51451
H    -0.98220  -5.37044   4.02055
C    -1.01086  -4.35715   2.13566
H    -0.74722  -5.23794   1.56933
C    -1.20973  -3.15277   1.49025
H    -1.09878  -3.07064   0.41543
O     1.34713   0.43660  -0.84684
