43

Zr    0.00000   0.00000   0.00000
C     0.56692   0.06492   2.35038
C    -0.47152  -0.90741   2.23033
H    -1.44901  -0.83959   2.69634
C     0.04645  -2.02183   1.53981
H    -0.45565  -2.97180   1.40699
C     1.39307  -1.74634   1.20485
H     2.09754  -2.44937   0.77711
C     1.72036  -0.46991   1.70830
H     2.71022  -0.03061   1.70915
C     0.40662   1.37544   2.96537
H    -0.48601   1.49333   3.56793
C     1.24723   2.39600   2.79388
H     2.12729   2.26966   2.17287
C     1.09063   3.77116   3.36057
H     1.11887   4.47685   2.52404
H     1.96422   3.99037   3.98446
C    -0.18222   3.99739   4.16543
H    -1.05763   3.80234   3.55074
H    -0.22633   5.02870   4.50815
H    -0.21003   3.34714   5.03682
Cl   -1.61169   1.59271   0.56730
C    -0.56866   0.06493  -2.35003
C     0.46959  -0.90765  -2.23048
H     1.44691  -0.84005  -2.69684
C    -0.04829  -2.02190  -1.53970
H     0.45370  -2.97194  -1.40706
C    -1.39477  -1.74620  -1.20437
H    -2.09936  -2.44930  -0.77690
C    -1.72191  -0.46945  -1.70723
H    -2.71186  -0.03024  -1.70830
C    -0.40856   1.37528  -2.96545
H     0.48329   1.49274  -3.56923
C    -1.24865   2.39611  -2.79297
H    -2.12813   2.26995  -2.17107
C    -1.09243   3.77120  -3.35990
H    -1.12025   4.47697  -2.52343
H    -1.96638   3.99030  -3.98334
C     0.17997   3.99731  -4.16549
H     1.05569   3.80187  -3.55137
H     0.22411   5.02871  -4.50793
H     0.20708   3.34730  -5.03708
O     1.13644   1.12618  -0.40339
