45

Hf    0.00000   0.00000   0.00000
Cl    1.43444   1.50860  -0.99818
C    -2.26347   0.18930   0.85525
C    -1.79669   1.52344   0.72724
H    -1.74331   2.25347   1.52314
C    -1.65651   1.81247  -0.65073
H    -1.42556   2.78052  -1.07110
C    -1.99752   0.65683  -1.37759
H    -2.07379   0.58274  -2.45361
C    -2.36478  -0.35304  -0.45222
H    -2.80938  -1.30493  -0.70838
C    -2.57134  -0.54503   2.13803
H    -2.54364   0.17550   2.96683
C    -3.96478  -1.12283   2.05970
H    -4.58232  -0.64232   1.31225
C    -4.49986  -2.10182   2.77303
H    -5.52199  -2.38185   2.55250
C    -3.86143  -2.91039   3.86502
H    -3.14677  -2.29100   4.41134
C    -4.93607  -3.35501   4.85865
H    -5.44050  -2.48586   5.27556
H    -4.50012  -3.91968   5.67892
H    -5.67950  -3.97977   4.36764
C    -0.09934  -1.07232   2.09594
C     0.37783   0.23013   2.41602
H    -0.10906   0.93841   3.07091
C     1.69819   0.34858   1.93069
H     2.35830   1.18625   2.09921
C     2.04762  -0.86090   1.30507
H     3.02112  -1.11091   0.90892
C     0.94855  -1.74470   1.40681
H     0.96540  -2.79292   1.14186
C    -1.46861  -1.62774   2.40604
H    -1.50478  -1.89673   3.46340
C    -1.75238  -2.84232   1.56811
H    -1.34660  -2.81154   0.55962
C    -2.47980  -3.88716   1.93422
H    -2.61005  -4.68668   1.21655
C    -3.13238  -4.14243   3.26885
H    -3.89331  -4.91428   3.11025
C    -2.08756  -4.70824   4.23767
H    -1.28712  -3.99185   4.40668
H    -1.64856  -5.61248   3.82221
H    -2.53988  -4.95724   5.19416
O     0.26582  -1.11328  -1.18847
