45

Zr    0.00000   0.00000   0.00000
Cl   -1.45380   1.47410   1.06966
C     0.11056  -1.05898  -2.13943
C    -0.93329  -1.72719  -1.44332
H    -0.95783  -2.77807  -1.17892
C    -2.01027  -0.82308  -1.28855
H    -2.97792  -1.05905  -0.86137
C    -1.65205   0.39442  -1.90471
H    -2.30002   1.25211  -2.03573
C    -0.35153   0.25293  -2.43554
H     0.13716   0.96930  -3.08424
C     1.48760  -1.61359  -2.42580
H     1.54325  -1.89844  -3.47867
C     1.76301  -2.81429  -1.56173
H     1.34704  -2.76452  -0.55534
C     2.49512  -3.86427  -1.90450
H     2.62055  -4.65202  -1.17309
C     3.15949  -4.14123  -3.22938
H     3.91819  -4.91104  -3.05167
C     2.12309  -4.72183  -4.19864
H     1.68138  -5.62031  -3.77369
H     2.58362  -4.98441  -5.14746
H     1.32362  -4.00860  -4.38455
C     2.27288   0.20910  -0.86604
C     2.38337  -0.32797   0.44253
H     2.82729  -1.28141   0.70447
C     1.97786   0.66872   1.36530
H     2.03242   0.59028   2.44542
C     1.61936   1.82069   0.63469
H     1.35461   2.78330   1.05524
C     1.78651   1.53767  -0.74115
H     1.71498   2.26814  -1.53898
C     2.58661  -0.52608  -2.15045
H     2.56383   0.19495  -2.98009
C     3.98103  -1.10139  -2.06163
H     4.59558  -0.60710  -1.32029
C     4.52261  -2.09026  -2.75657
H     5.54487  -2.36215  -2.52644
C     3.89542  -2.91993  -3.83948
H     3.18724  -2.31121  -4.40574
C     4.98085  -3.38334  -4.81265
H     5.49130  -2.52241  -5.23919
H     4.55367  -3.96208  -5.62767
H     5.71778  -4.00017  -4.30218
O    -0.20588  -1.17566   1.13927
