35

Pt    0.00000   0.00000   0.00000
S    -1.96323  -1.29877   0.56273
Cl    1.18098  -1.90353  -0.13975
O    -3.00874  -3.28802  -2.41578
H    -2.74403  -4.20580  -2.52637
N    -1.15971   1.69302   0.10291
N    -1.95149   1.89050   1.16872
C    -1.40785   2.66130  -0.76880
C    -2.39523   3.50547  -0.23714
H    -2.80478   4.38017  -0.69802
C    -2.72401   2.98792   0.99717
C    -3.70044   3.46080   2.01040
H    -4.45247   2.70052   2.22085
H    -4.20118   4.35007   1.63936
H    -3.19801   3.71329   2.94398
C    -0.73288   2.74674  -2.08617
H     0.10023   2.04592  -2.11441
H    -0.35337   3.75278  -2.24714
H    -1.43334   2.51314  -2.88748
C    -1.93916   0.94933   2.25175
H    -2.35176   1.42600   3.14383
H    -0.89335   0.66781   2.44576
C    -2.73735  -0.31049   1.91100
H    -3.75703  -0.07344   1.61064
H    -2.76161  -0.96906   2.77828
C    -3.03463  -0.85908  -0.86245
H    -3.88576  -1.53945  -0.84261
H    -3.37025   0.17051  -0.74407
C    -2.26200  -1.03301  -2.16013
H    -2.89640  -0.71668  -2.99029
H    -1.35372  -0.41500  -2.14177
C    -1.84448  -2.48589  -2.36887
H    -1.28036  -2.56752  -3.30682
H    -1.18739  -2.79711  -1.54434
O     1.36720   0.88259  -0.27260
