62

Rh    0.00000   0.00000   0.00000
P     0.18793   2.04632  -0.97913
F     2.05986   1.65134   0.91852
F     4.41870   0.96351   1.97401
F     6.69169   1.00773   0.47479
F     6.56220   1.75968  -2.14841
C     1.77584   2.28828  -1.87180
C     1.77094   2.62487  -3.20606
H     0.83292   2.81596  -3.70452
C     2.95229   2.69716  -3.95306
H     2.89936   2.96532  -4.99720
C     4.15546   2.40429  -3.37679
H     5.07072   2.42662  -3.94725
C     4.21343   2.04472  -2.01490
C     5.44419   1.70727  -1.40823
C     5.52385   1.33267  -0.09123
C     4.34955   1.30844   0.68181
C     3.14505   1.64972   0.11835
C     3.02047   2.00480  -1.24134
C    -1.06747   2.25718  -2.28291
C    -1.72027   1.10637  -2.71313
H    -1.43738   0.14972  -2.27829
C    -2.70491   1.18310  -3.68145
H    -3.20601   0.28695  -4.01626
C    -3.04955   2.41273  -4.21843
H    -3.82060   2.47679  -4.97194
C    -2.40908   3.56415  -3.78686
H    -2.68191   4.52252  -4.20426
C    -1.42094   3.49155  -2.82204
H    -0.92395   4.39068  -2.48331
C     0.03097   3.64543  -0.10333
C    -1.22163   3.98765   0.40056
H    -2.06174   3.33042   0.22291
C    -1.40065   5.16162   1.10594
H    -2.37799   5.41630   1.48886
C    -0.32614   6.00982   1.32246
H    -0.46280   6.92692   1.87574
C     0.92203   5.67840   0.82464
H     1.76154   6.33862   0.98657
C     1.10283   4.50265   0.11664
H     2.08209   4.26193  -0.27227
C    -0.47285  -2.06896   0.49268
H    -0.31847  -2.64021  -0.42219
C     0.65015  -1.67265   1.19251
H     1.62337  -1.97060   0.80072
C     0.67921  -1.24666   2.64043
H     1.63866  -0.75831   2.82722
H     0.63856  -2.13711   3.27730
C    -0.45270  -0.27175   3.01700
H    -1.33392  -0.81805   3.35650
H    -0.11451   0.34647   3.85041
C    -0.83826   0.62834   1.86328
H    -0.59781   1.67973   2.01401
C    -1.85775   0.32659   0.96287
H    -2.38272   1.16010   0.49346
C    -2.68525  -0.93909   0.98115
H    -3.24789  -0.98422   0.04478
H    -3.41731  -0.87984   1.79455
C    -1.84150  -2.21956   1.11850
H    -1.72518  -2.49127   2.16837
H    -2.36752  -3.04139   0.62852
O     1.01329  -0.46734  -1.21545
