49

Rh    0.00000   0.00000   0.00000
O     0.56917   0.48547  -3.44749
O     0.74590  -1.49808  -2.30562
N     1.08416  -0.45687   1.85266
H     0.51431  -1.18701   2.28472
H     2.03076  -0.81782   1.73654
C     1.46484  -0.88258  -1.30192
C     1.05108   1.32931  -2.42463
C    -1.02250   1.29311  -1.42670
C    -2.20619   2.08941  -0.94967
H    -2.72825   2.47782  -1.82460
H    -1.87288   2.93224  -0.35069
H    -2.88363   1.47050  -0.36970
C    -0.17200  -0.57698  -2.88426
C     1.96221   0.42380   4.00010
H     1.49508  -0.35966   4.59355
H     2.03795   1.31833   4.61217
H     2.96787   0.10023   3.73772
C     1.60379   1.89443   1.94428
C     0.65114   2.72032   1.35105
H    -0.39728   2.54514   1.55397
C     1.04066   3.77956   0.54942
H     0.29782   4.41710   0.09503
C     2.38614   4.02317   0.32917
H     2.69285   4.85183  -0.29250
C     3.33832   3.20711   0.91437
H     4.38915   3.39400   0.74533
C     2.95031   2.14558   1.71527
H     3.70908   1.51823   2.16002
C     1.12344   0.71084   2.75592
H     0.08884   0.90483   3.05948
C     2.07006   2.28491  -3.02405
H     2.92223   1.72064  -3.39007
H     2.38295   2.99058  -2.26081
H     1.60769   2.81721  -3.84962
C    -1.10307  -0.05343  -1.79867
H    -2.05218  -0.57245  -1.69810
C     1.62370   0.50588  -1.28093
H     2.48203   0.94040  -0.78159
C     2.45215  -1.84705  -0.69310
H     2.96679  -2.35236  -1.50965
H     1.94183  -2.61041  -0.10645
H     3.18545  -1.32328  -0.08553
C    -0.91929  -1.29065  -3.99917
H    -1.65077  -0.61623  -4.43322
H    -1.41115  -2.16882  -3.59297
H    -0.20687  -1.59127  -4.76150
O    -0.04350   2.10540  -1.93945
O    -1.32237  -0.15737   0.97421
