63

Re    0.00000   0.00000   0.00000
O    -1.50329  -2.46070  -1.10296
O    -2.62873   1.26830   1.00697
O     0.83348  -1.57192   2.52661
N     1.33132   1.81660   0.23555
N     1.74906  -0.46241  -1.08487
N    -0.25548   4.10144   2.39475
C     3.66314   0.42294  -2.33692
H     4.53379   0.91013  -1.90069
H     3.89566  -0.62281  -2.52690
H     3.44105   0.90371  -3.28966
C     2.48132   0.53536  -1.42657
C     2.15723   1.83642  -0.83396
C     2.69944   3.01676  -1.33697
H     3.33611   2.99468  -2.20558
C     2.35950   4.21826  -0.74358
H     2.71889   5.15313  -1.14552
C     1.56710   4.18879   0.38594
H     1.29096   5.08772   0.91267
C     1.08479   2.96776   0.86770
C     0.35244   3.01764   2.15577
C     0.44968   1.85677   3.10056
H     1.40960   1.35449   3.00829
H     0.30744   2.20307   4.12107
H    -0.33735   1.13334   2.88358
C     2.06914  -1.78008  -1.50957
C     1.54780  -2.28485  -2.70571
C     1.81067  -3.60615  -3.03772
H     1.40379  -4.00368  -3.95555
C     2.57978  -4.40925  -2.21698
H     2.76922  -5.43670  -2.48793
C     3.11198  -3.88940  -1.05318
H     3.72620  -4.50575  -0.41365
C     2.87100  -2.57356  -0.68311
C     0.75459  -1.42179  -3.63706
H     0.08251  -2.02947  -4.23757
H     0.16600  -0.67915  -3.10312
H     1.42352  -0.88903  -4.31587
C     3.50342  -2.03564   0.56772
H     3.09168  -1.06957   0.85064
H     3.34858  -2.72886   1.39181
H     4.57890  -1.92303   0.42166
C    -0.88235   4.47111   3.56930
C    -0.14725   4.82073   4.71070
C    -0.82795   5.30371   5.81930
H    -0.26143   5.57512   6.69883
C    -2.20256   5.44117   5.81388
H    -2.71415   5.81077   6.68976
C    -2.91700   5.11915   4.67304
H    -3.99026   5.24106   4.65488
C    -2.27386   4.64944   3.54177
C     1.35220   4.72026   4.75586
H     1.77835   4.64981   3.75758
H     1.76857   5.59637   5.24988
H     1.66367   3.84213   5.32384
C    -3.03642   4.29665   2.30336
H    -2.46315   4.57040   1.41900
H    -3.21714   3.22293   2.25989
H    -3.99715   4.80500   2.28410
C    -0.97134  -1.55904  -0.64333
C    -1.64545   0.75509   0.73140
C     0.53861  -0.98215   1.58300
O    -0.42787   0.92698  -1.29620
