63

Re    0.00000   0.00000   0.00000
O    -1.48877  -2.55934  -0.89044
O     0.96545  -1.49700   2.52026
O    -2.61337   1.11190   1.23032
N     1.73579  -0.44722  -1.12966
N     1.32961   1.83445   0.18683
N    -0.33182   4.11987   2.27064
C     3.69775   0.40708  -2.33408
H     4.57222   0.86012  -1.86957
H     3.90519  -0.64066  -2.54092
H     3.51127   0.91269  -3.28196
C     2.50149   0.53715  -1.44530
C     2.19033   1.84112  -0.85659
C     2.76364   3.01316  -1.34398
H     3.42755   2.98037  -2.19120
C     2.42227   4.21988  -0.76273
H     2.80612   5.14885  -1.15453
C     1.59566   4.20285   0.34273
H     1.31650   5.10643   0.85946
C     1.08516   2.99003   0.81373
C     0.32431   3.05464   2.08443
C     0.46585   1.93428   3.07442
H     1.44300   1.46287   2.99615
H     0.31845   2.31587   4.08129
H    -0.29692   1.17543   2.89667
C     2.05144  -1.76705  -1.55266
C     1.50069  -2.27983  -2.73293
C     1.77037  -3.59774  -3.07011
H     1.34398  -4.00200  -3.97586
C     2.57083  -4.39055  -2.26891
H     2.76498  -5.41603  -2.54363
C     3.12993  -3.86257  -1.12205
H     3.76958  -4.46988  -0.49902
C     2.88800  -2.54731  -0.74920
C     0.63687  -1.43576  -3.61547
H     1.06557  -0.44797  -3.77799
H     0.49419  -1.91516  -4.58022
H    -0.34513  -1.29295  -3.16406
C     3.55161  -2.00432   0.48337
H     3.17139  -1.02329   0.75915
H     3.39186  -2.68017   1.32111
H     4.62711  -1.92181   0.32067
C    -0.98841   4.51508   3.41954
C    -2.38155   4.67428   3.35241
C    -3.05900   5.16304   4.45508
H    -4.13293   5.26945   4.40734
C    -2.37771   5.52448   5.60454
H    -2.91597   5.90807   6.45811
C    -1.00187   5.41012   5.64609
H    -0.46045   5.71504   6.53045
C    -0.28649   4.90834   4.56775
C    -3.10819   4.28210   2.10469
H    -4.07385   4.77812   2.04905
H    -2.51620   4.54062   1.22810
H    -3.27660   3.20592   2.08401
C     1.21359   4.84816   4.65423
H     1.66742   4.67398   3.68137
H     1.59883   5.78613   5.05115
H     1.52932   4.05127   5.32930
C    -0.95532  -1.61177  -0.53240
C     0.63738  -0.92851   1.57699
C    -1.62473   0.67788   0.84964
O    -0.55878   0.88719  -1.27403
