50

Zn    0.00000   0.00000   0.00000
Cl    0.91723  -1.95228  -0.61127
N    -1.66460   0.40629   1.32582
C    -2.25769   1.51830   0.59141
H    -1.56332   2.36335   0.65557
H    -3.21917   1.81928   1.02884
N    -1.51161   0.40760  -1.42359
C    -2.43247   1.19760  -0.86725
C    -3.47320   1.73813  -1.59844
H    -4.20159   2.37265  -1.12004
C    -3.54685   1.45362  -2.95732
H    -4.34251   1.86769  -3.55724
C    -2.60340   0.63403  -3.53295
H    -2.62639   0.38964  -4.58085
C    -1.58027   0.10821  -2.72971
N    -0.60924  -0.73151  -3.20277
H     0.00823  -1.12349  -2.49052
O    -1.04382  -0.69811  -5.43776
C    -0.36265  -1.08258  -4.51696
C     0.84650  -1.99679  -4.69363
C     1.03779  -2.24031  -6.19290
H     1.22055  -1.30117  -6.70888
H     0.14573  -2.69077  -6.62033
H     1.88205  -2.90374  -6.36054
C     0.58009  -3.33058  -3.98525
H    -0.35479  -3.76620  -4.33214
H     0.53611  -3.21175  -2.90616
H     1.38571  -4.02445  -4.21321
C     2.09921  -1.32430  -4.11983
H     2.21439  -0.31993  -4.52243
H     2.97636  -1.90509  -4.39530
H     2.06837  -1.26656  -3.03543
C    -1.20942   0.82239   2.65222
H    -2.06284   1.14617   3.26265
H    -0.50484   1.64828   2.54110
C    -0.51400  -0.35082   3.32726
H     0.36940  -0.63336   2.71508
H    -0.16142  -0.04883   4.31535
N    -1.43784  -1.45442   3.47718
C    -0.84962  -2.56062   4.20151
H    -0.53348  -2.21346   5.18357
H     0.01890  -2.99026   3.68133
H    -1.59980  -3.33886   4.33088
C    -1.93283  -1.86199   2.17815
H    -2.64931  -2.67475   2.31528
H    -1.11714  -2.22597   1.52548
C    -2.62042  -0.68743   1.49560
H    -2.99197  -0.99606   0.51645
H    -3.46667  -0.35238   2.11175
O     0.88761   1.37501   0.20979
