32

Zn    0.00000   0.00000   0.00000
N     2.16094   0.10410  -0.43030
C     2.57081   0.82680   0.77152
H     2.15448   1.83763   0.70219
H     3.66470   0.89915   0.84188
N     0.80145  -0.35795   1.89773
C     2.01337   0.19307   2.01570
Cl   -1.44454  -1.67530  -0.36165
C     2.69962   0.20722   3.21120
H     3.67499   0.66009   3.27706
C     2.09694  -0.36686   4.33193
H     2.60745  -0.35844   5.28283
C     0.86272  -0.94980   4.21111
H     0.37163  -1.41239   5.05224
C     0.21887  -0.94563   2.95427
N    -0.98287  -1.50515   2.77483
C     2.45664   0.87635  -1.63871
H     3.53887   1.04911  -1.72486
H     1.93494   1.83282  -1.58552
C     1.96586   0.09383  -2.85483
H     0.87041  -0.02467  -2.78303
H     2.20945   0.62163  -3.77784
O     2.58624  -1.16542  -2.93894
C     2.34546  -1.91943  -1.77713
H     2.87630  -2.86390  -1.90636
H     1.26798  -2.12089  -1.66911
C     2.84303  -1.18701  -0.53102
H     2.62659  -1.78286   0.35709
H     3.93008  -1.03408  -0.60736
H    -1.41525  -2.01517   3.52365
H    -1.34841  -1.60896   1.83106
O    -0.34631   1.60274  -0.18383
