41

Pd    0.00000   0.00000   0.00000
S    -1.65025  -1.30207  -1.19911
Cl    1.47272  -1.64238  -0.48086
N    -2.64397   1.21907   0.53231
N    -1.25074   2.76608  -0.00501
C    -1.33961   1.45691   0.28130
C    -2.48844   3.34431   0.06222
H    -2.64743   4.38647  -0.12415
C    -3.37153   2.37315   0.39744
H    -4.42909   2.41198   0.55956
C    -3.14095  -0.09473   0.84406
H    -4.11116  -0.00673   1.34129
H    -2.42389  -0.57680   1.53008
C    -3.27334  -0.95934  -0.41211
H    -3.94053  -0.51561  -1.14817
H    -3.65397  -1.94321  -0.13794
C    -1.43707  -0.08099  -2.48762
C    -2.35683   0.89537  -2.83879
H    -3.28423   1.02508  -2.30157
C    -2.08283   1.73824  -3.90549
H    -2.80250   2.49856  -4.17135
C    -0.90944   1.60735  -4.62538
H    -0.71073   2.26398  -5.45859
C     0.00949   0.62981  -4.27074
H     0.92904   0.52140  -4.82431
C    -0.24754  -0.21298  -3.20754
H     0.46089  -0.98185  -2.92366
C    -0.01262   3.45198  -0.30090
H     0.66818   3.30154   0.54403
H    -0.22988   4.51616  -0.41717
C     0.65352   2.89420  -1.56081
H    -0.00517   3.02691  -2.42291
H     0.83129   1.80863  -1.41248
C     2.00179   3.55740  -1.82285
H     1.85927   4.62205  -2.02440
H     2.61917   3.45915  -0.92917
C     2.71087   2.89728  -2.99775
H     2.86899   1.84214  -2.78728
H     3.67722   3.36305  -3.17191
H     2.11581   2.98487  -3.90463
O     1.09350   0.73711   0.99168
