38

Ti    0.00000   0.00000   0.00000
Cl    1.40795  -1.36468  -0.90792
Cl    0.77364  -0.13583   2.02176
Si   -1.30266  -0.53006  -3.24466
C     0.13577   0.66735  -3.63651
C    -2.89018  -0.09814  -4.22582
C    -0.74488  -2.27008  -3.79768
C    -1.69834  -0.38336  -1.39496
C    -1.96757   0.84707  -0.71605
C    -2.11178   0.57359   0.67159
C    -1.97529  -0.83161   0.85994
C    -1.71493  -1.41944  -0.40685
C    -2.24425   2.18548  -1.33539
C    -2.42445   1.58371   1.73536
C    -2.17820  -1.57302   2.14805
C    -1.63595  -2.89524  -0.66320
H     0.33518   0.70900  -4.70333
H    -0.05083   1.68277  -3.29714
H     1.04650   0.32608  -3.14499
H    -2.70047  -0.18298  -5.29028
H    -3.69893  -0.78051  -3.98370
H    -3.24827   0.90806  -4.03744
H    -0.49802  -2.24650  -4.85483
H     0.14445  -2.58990  -3.26375
H    -1.51400  -3.02296  -3.66397
H    -2.13478   2.14409  -2.41465
H    -3.26748   2.48795  -1.10290
H    -1.56725   2.94963  -0.94899
H    -1.87228   1.36358   2.64991
H    -2.15215   2.58440   1.40205
H    -3.49158   1.57504   1.96847
H    -2.15068  -0.88987   2.99389
H    -3.14981  -2.07239   2.14083
H    -1.40323  -2.32632   2.29434
H    -0.68578  -3.16796  -1.12115
H    -1.74130  -3.44898   0.26769
H    -2.43926  -3.19784  -1.33554
O     0.71208   1.44066  -0.37409
