69

Pt    0.00000   0.00000   0.00000
P    -0.18998  -1.65411  -1.52228
Cl   -0.91137   1.32067  -1.64186
O     0.40291  -1.22831  -2.95741
O     3.18158  -3.22192  -0.89552
N     0.97147  -2.87902  -1.21858
N    -1.56155  -2.50983  -1.85972
C     1.63472  -0.61986  -2.78801
C     1.88771   0.54106  -3.52824
H     1.12422   0.88870  -4.20499
C     3.05928   1.21448  -3.33694
H     3.25987   2.12305  -3.88463
C     4.01469   0.75430  -2.40707
C     5.20716   1.47481  -2.18912
H     5.36119   2.39071  -2.74087
C     6.14420   1.02935  -1.30011
H     7.05523   1.58616  -1.13871
C     5.92122  -0.15975  -0.59431
H     6.66611  -0.51561   0.10143
C     4.77025  -0.87768  -0.77546
H     4.62383  -1.79411  -0.23091
C     3.78179  -0.44959  -1.68375
C     2.54782  -1.14626  -1.88681
C     2.29756  -2.47890  -1.27280
C     0.64443  -4.03725  -0.40978
H     1.53987  -4.66222  -0.35501
H    -0.16818  -4.58837  -0.88496
C    -2.83452  -1.93817  -1.45728
H    -3.33748  -1.44346  -2.29174
H    -2.65599  -1.19387  -0.67695
H    -3.48398  -2.72486  -1.06662
C    -1.60815  -3.33195  -3.05636
H    -2.25647  -4.19191  -2.87519
H    -0.60362  -3.68189  -3.28866
H    -1.99264  -2.77520  -3.91535
P     0.76200  -1.11654   1.82152
O     2.01358  -0.63466   2.68249
O     2.47101  -4.57208   2.04323
N     1.22745  -2.75527   1.59739
N    -0.45284  -1.25362   2.94229
C     3.29117  -1.12771   2.56534
C     4.31851  -0.22534   2.88039
H     4.04335   0.78500   3.13726
C     5.61526  -0.64504   2.85328
H     6.41385   0.03830   3.10213
C     5.93847  -1.96822   2.48616
C     7.28286  -2.38820   2.41646
H     8.05729  -1.67792   2.66954
C     7.60096  -3.65880   2.02730
H     8.63286  -3.97246   1.97134
C     6.58090  -4.55719   1.68754
H     6.83972  -5.55443   1.36478
C     5.26542  -4.18539   1.75564
H     4.49319  -4.88506   1.48699
C     4.90040  -2.88756   2.16627
C     3.54261  -2.44461   2.23996
C     0.22137  -3.61432   0.99990
H    -0.71302  -3.04419   0.95343
H     0.08504  -4.50369   1.62099
C    -1.69950  -0.53105   2.80278
H    -2.54039  -1.20075   3.00098
H    -1.78095  -0.14502   1.77844
H    -1.74780   0.31693   3.49071
C    -0.17044  -1.72532   4.28404
H    -0.04302  -0.89548   4.98509
H     0.74071  -2.32277   4.27693
H    -0.99595  -2.35282   4.62738
C     2.41759  -3.36293   1.96684
O     0.31509   1.22411   1.06056
