44

Re    0.00000   0.00000   0.00000
O    -0.09989   1.34954   0.96256
Cl   -0.30538  -1.46158  -1.66227
Cl    0.64680  -1.55929   1.53275
P    -2.38121  -0.52987   0.22597
C    -3.20749   0.23435  -1.24599
H    -2.73020  -0.16723  -2.14362
H    -4.26344  -0.04823  -1.22965
C    -3.05606   1.72120  -1.12518
C    -4.12733   2.49355  -0.69432
H    -5.07790   2.01431  -0.50999
C    -3.99481   3.85384  -0.48545
H    -4.84098   4.43108  -0.14704
C    -2.77106   4.46475  -0.69704
H    -2.65313   5.52303  -0.52398
C    -1.69408   3.71474  -1.12934
H    -0.73287   4.18266  -1.28232
C    -1.82333   2.34849  -1.34916
N    -0.68985   1.59313  -1.72986
H     0.12443   2.17819  -1.90280
H    -0.84676   0.96736  -2.51657
C    -2.82019  -2.27952   0.24798
C    -3.30348  -2.96291  -0.86167
H    -3.47952  -2.44231  -1.79135
C    -3.54535  -4.32284  -0.77414
H    -3.91988  -4.85617  -1.63543
C    -3.29702  -5.00154   0.40751
H    -3.47969  -6.06419   0.46552
C    -2.80357  -4.32259   1.51136
H    -2.59763  -4.85492   2.42751
C    -2.56224  -2.96474   1.43470
H    -2.15779  -2.42298   2.27902
C    -3.34979   0.19111   1.58071
C    -2.82533   1.25361   2.30551
H    -1.81752   1.58744   2.09212
C    -3.58816   1.85816   3.28883
H    -3.18146   2.68329   3.85330
C    -4.86963   1.40139   3.55039
H    -5.46428   1.87197   4.31919
C    -5.39054   0.33549   2.83298
H    -6.38766  -0.02256   3.04332
C    -4.63531  -0.27169   1.84718
H    -5.03544  -1.10691   1.28776
O     1.56296   0.16531  -0.50234
