55

Ti    0.00000   0.00000   0.00000
Cl   -0.47170   1.70941   1.31203
O    -1.38400   0.20415  -0.96304
C     1.32161  -0.49004  -1.80989
C     1.87468  -1.13962  -0.66628
C     2.28408  -0.13141   0.25316
C     1.99306   1.13546  -0.31842
C     1.38454   0.91352  -1.58862
C     0.91554  -1.12555  -3.10885
H     0.63775  -2.16868  -2.97306
H     1.74843  -1.08642  -3.81619
H     0.06988  -0.59940  -3.55227
C    -2.17344  -0.41839  -1.81660
C    -2.14139  -1.82487  -1.84436
C    -2.98391  -2.52922  -2.68465
H    -2.97449  -3.60725  -2.70978
C    -3.85266  -1.83989  -3.52458
C    -3.86208  -0.45227  -3.53592
H    -4.53221   0.06088  -4.20751
C    -3.02895   0.27222  -2.69245
O    -2.94120   1.63102  -2.62589
O    -1.20569  -2.34638  -0.99079
C    -3.84294   2.39637  -3.38694
H    -3.63471   3.43414  -3.13226
H    -4.88143   2.16240  -3.13333
H    -3.68762   2.24859  -4.46114
C     2.16335  -2.60509  -0.51439
H     1.82040  -2.96832   0.45514
H     3.23963  -2.77961  -0.58326
H     1.67362  -3.18194  -1.29539
C    -4.74547  -2.62605  -4.45009
H    -5.32371  -3.35465  -3.87796
H    -5.44096  -1.94900  -4.95121
C    -1.30943  -3.71768  -0.66782
H    -0.64680  -3.86896   0.18313
H    -0.99378  -4.34695  -1.50776
H    -2.33212  -3.97775  -0.38089
C     2.99367  -0.36191   1.55671
H     2.81960  -1.37523   1.91461
H     2.63719   0.33477   2.31718
H     4.06997  -0.21642   1.43533
C    -3.91783  -3.33826  -5.47872
H    -3.32391  -2.69369  -6.11353
C    -3.86523  -4.64909  -5.61843
H    -4.44638  -5.30989  -4.99532
H    -3.24969  -5.12023  -6.36590
C     2.40660   2.46538   0.23849
H     1.66823   3.23277   0.01232
H     3.36619   2.76406  -0.19176
H     2.51554   2.41320   1.31973
C     0.94882   1.96276  -2.57196
H     1.26890   2.94949  -2.24467
H    -0.13983   1.97148  -2.67302
H     1.38370   1.76579  -3.55343
O    -0.21597  -1.07641   1.23174
