36

Pt    0.00000   0.00000   0.00000
N     0.33570   1.57166  -1.30214
Cl   -0.46169  -1.79229   1.34416
Cl   -2.14341   0.90319   0.39046
C     0.08203   1.54955  -2.61094
C     0.26470   2.71166  -3.35934
H     0.07149   2.71082  -4.41733
C     0.69622   3.87376  -2.74627
H     0.82966   4.77527  -3.32433
C     0.95759   3.86547  -1.39039
H     1.29682   4.75591  -0.88974
C     0.76956   2.68457  -0.67954
C     1.01467   2.54396   0.75282
C     1.52382   3.55265   1.57449
H     1.76764   4.51875   1.16286
C     1.72509   3.32756   2.92100
H     2.11734   4.09837   3.56498
F     1.61131   1.87033   4.75841
C     1.41578   2.08569   3.45139
C     0.90945   1.05525   2.66959
H     0.67977   0.10081   3.11937
C     0.71866   1.30422   1.33182
C    -0.30263   0.25083  -3.30673
C    -1.16393   0.52246  -4.55028
H    -0.58642   0.96898  -5.35477
H    -2.00083   1.17295  -4.30724
H    -1.56245  -0.41719  -4.92443
C     1.01732  -0.41488  -3.73224
H     1.58602   0.24261  -4.38631
H     0.80722  -1.33714  -4.26817
H     1.62958  -0.64820  -2.86312
C    -1.10062  -0.70953  -2.41640
H    -0.51668  -1.06359  -1.53443
H    -1.34383  -1.60608  -2.98441
H    -2.03421  -0.25067  -2.08839
O     1.53146  -0.55832  -0.25573
