48

Zr    0.00000   0.00000   0.00000
Cl   -0.15772  -0.44133  -2.43162
Cl    0.86567   1.24166   1.84700
N    -1.27320   1.75074  -0.66116
C    -0.76698   2.37462  -1.72908
C    -1.58412   2.93737  -2.70343
H    -1.15577   3.37667  -3.58888
C    -2.95559   2.88302  -2.52666
H    -3.61803   3.30059  -3.26969
C    -3.47186   2.28350  -1.38911
H    -4.53659   2.24672  -1.23310
C    -2.60098   1.69997  -0.47601
C    -3.04507   0.99556   0.79776
C    -2.25400  -0.29646   0.87278
C    -2.14424  -1.22040  -0.19915
H    -2.72214  -1.20200  -1.11596
C    -1.22191  -2.21828   0.17342
H    -0.97295  -3.09958  -0.40488
C    -0.77034  -1.92870   1.47935
H    -0.12280  -2.55608   2.08051
C    -1.41443  -0.75340   1.91843
H    -1.33237  -0.33103   2.91074
C    -2.68013   1.93265   1.96263
H    -3.17607   2.89375   1.83669
H    -1.60086   2.09215   2.00119
H    -3.01044   1.49877   2.90276
C    -4.54752   0.68936   0.82556
H    -5.13840   1.60136   0.87134
H    -4.76706   0.09782   1.71105
H    -4.84204   0.11112  -0.04681
C     0.74405   2.46339  -1.79952
H     1.05569   2.32398  -2.84314
C     1.26791   3.85212  -1.30072
C     0.97828   4.93323  -2.34263
H    -0.08963   5.10727  -2.44374
H     1.38643   4.66291  -3.31409
H     1.43986   5.86649  -2.03037
C     2.78147   3.72653  -1.10294
H     3.19548   4.68877  -0.81459
H     3.26876   3.40562  -2.02126
H     3.00366   3.01131  -0.31454
C     0.60594   4.21459   0.02861
H    -0.45689   4.40991  -0.10340
H     1.06759   5.11021   0.43566
H     0.73048   3.40648   0.74792
O     1.31881   1.44479  -0.97524
H     1.74487   0.76236  -1.53201
O     1.41176  -0.85195  -0.06006
