66

Pd    0.00000   0.00000   0.00000
P     1.73944   0.79524   1.15253
P    -1.65133  -1.04716  -1.08599
O    -2.76924  -1.70866  -0.12822
C    -0.48819  -0.87139   1.77454
C     0.50391  -1.00416   2.75634
C     0.24442  -1.64684   3.95993
C    -1.00757  -2.16831   4.22226
C    -2.01228  -2.00492   3.28880
C    -1.76436  -1.35118   2.08733
C     1.87441  -0.41891   2.53041
C     3.44772   0.75089   0.36535
C     3.62402   1.93003  -0.58930
C     3.41031  -0.54130  -0.46195
C     4.59719   0.70338   1.37106
C     1.29530   2.44257   1.94552
C     0.84812   3.36538   0.80797
C     2.40088   3.07778   2.78086
C     0.06511   2.16495   2.81594
C    -2.93562  -1.11723   1.16153
C    -1.01544  -2.58199  -1.89799
C     0.00280  -3.15217  -0.90900
C    -0.35884  -2.28020  -3.23866
C    -2.65286  -0.10958  -2.33765
C    -3.10607   1.18204  -1.65696
C    -3.82494  -0.92395  -2.86466
H     1.03139  -1.73515   4.69730
H    -1.20368  -2.67942   5.15298
H    -3.00593  -2.37675   3.49724
H     2.55565  -1.21570   2.21287
H     2.28158   0.02428   3.44442
H     4.50784   1.77406  -1.20706
H     2.76066   2.00966  -1.24891
H     3.75596   2.86484  -0.04888
H     3.27925  -1.42202   0.16922
H     2.58566  -0.49403  -1.18089
H     4.33818  -0.66164  -1.01911
H     4.53707  -0.17118   2.01457
H     5.54081   0.65217   0.82839
H     4.61946   1.59128   1.99669
H     0.35367   4.24917   1.20997
H     1.68245   3.69202   0.19424
H     0.13598   2.83374   0.16269
H     2.76422   2.38857   3.54155
H     3.23670   3.38913   2.15900
H     2.01446   3.96225   3.28676
H    -0.32682   3.10151   3.21160
H    -0.71978   1.69240   2.21133
H     0.29467   1.51114   3.65485
H    -3.09925  -0.03450   1.06032
H    -3.84281  -1.56872   1.57319
H    -1.85305  -3.28005  -2.01557
H    -0.47457  -3.36822   0.04865
H     0.44974  -4.06954  -1.28988
H     0.80429  -2.41326  -0.74296
H     0.17297  -3.15791  -3.60401
H    -1.09400  -1.99196  -3.98664
H     0.35600  -1.46437  -3.12868
H    -1.96601   0.14691  -3.14936
H    -2.25490   1.65415  -1.14945
H    -3.50125   1.88806  -2.38533
H    -3.88512   0.97712  -0.92225
H    -4.45569  -1.25467  -2.04110
H    -4.42817  -0.31935  -3.54045
H    -3.48046  -1.80282  -3.40526
O     0.36473   0.68998  -1.45375
