30

Zn    0.00000   0.00000   0.00000
Cl    0.65643  -0.90570   1.89274
N     1.57405   1.15277  -0.80477
C     2.80917   0.74885  -1.19206
H     3.32288  -0.02808  -0.66344
C     3.19587   1.47850  -2.27863
H     4.08613   1.44433  -2.87168
N     2.18068   2.34839  -2.55098
C     2.12704   3.28213  -3.63946
H     1.25970   3.92782  -3.50963
H     2.03189   2.75015  -4.58729
H     3.03599   3.88388  -3.65871
C     1.22228   2.11463  -1.63274
S    -0.28932   2.97964  -1.53499
C     0.00005   3.93415  -0.00009
H     0.88622   4.55271  -0.12024
N    -1.57320   1.15299   0.80612
C    -2.80824   0.74917   1.19380
H    -3.32211  -0.02789   0.66551
C    -3.19435   1.47858   2.28077
H    -4.08420   1.44413   2.87444
N    -2.17925   2.34882   2.55235
C    -2.12481   3.28226   3.64101
H    -1.26221   3.93317   3.50672
H    -2.02100   2.75066   4.58799
H    -3.03710   3.87836   3.66582
C    -1.22125   2.11514   1.63367
S     0.29008   2.98054   1.53526
H    -0.88602   4.55295   0.11976
O    -0.49329  -0.67789  -1.42113
