69

Cu    0.00000   0.00000   0.00000
S    -1.11821   1.94771   0.94045
P     1.60324  -0.54478   1.48627
N    -2.72449   1.79878  -1.17610
N    -4.01080   3.68894  -1.09613
C    -2.31234   2.42482  -0.09989
C    -3.80658   2.47427  -1.87636
C    -3.11883   3.69992   0.06327
C    -5.05943   1.59324  -1.83164
C    -3.38749   2.74540  -3.32126
C    -3.93731   3.63422   1.35722
C    -2.18949   4.91369   0.08061
C     1.72599   0.73061   2.78362
C     2.02451   2.04799   2.40621
C     2.01336   3.03668   3.37963
C     1.71398   2.74344   4.69821
C     1.42325   1.44128   5.06608
C     1.42490   0.44179   4.11163
C     2.38203   2.38889   0.99457
C     3.34942  -0.78175   1.00276
C     3.63426  -1.52264  -0.15126
C     4.95964  -1.67596  -0.53365
C     5.98748  -1.11656   0.20507
C     5.70119  -0.39563   1.35176
C     4.38711  -0.22771   1.74680
C     2.53368  -2.13926  -0.95191
C     1.27073  -2.07352   2.42967
C    -0.04798  -2.36901   2.80448
C    -0.29936  -3.55440   3.48091
C     0.72104  -4.43983   3.78071
C     2.01991  -4.14718   3.40352
C     2.29140  -2.97179   2.72848
C    -1.16886  -1.43421   2.47878
H     1.70512   3.53121   5.43706
H    -1.31308  -3.78752   3.77446
H    -4.62030   2.78977   1.32232
H    -3.27272   3.51914   2.20943
H    -4.51694   4.54586   1.46963
H     3.30657  -2.74830   2.43379
H    -5.33641   1.39948  -0.79926
H    -4.86929   0.64944  -2.33471
H    -5.88156   2.10520  -2.32159
H     5.18797  -2.24514  -1.42346
H     7.01185  -1.24916  -0.11028
H     6.49849   0.03420   1.94009
H     4.16348   0.32914   2.64647
H     2.23504   3.44962   0.80431
H     3.42582   2.14180   0.79389
H     1.76629   1.82064   0.29191
H     2.23870   4.05517   3.09591
H     1.19576  -0.57455   4.40117
H     1.18964   1.20312   6.09335
H     0.50114  -5.35745   4.30573
H     2.82261  -4.83245   3.63194
H    -0.92748  -0.41014   2.76983
H    -2.08588  -1.73204   2.98234
H    -1.35925  -1.44187   1.40141
H     1.98926  -1.36882  -1.50035
H     1.82370  -2.65609  -0.30356
H     2.92442  -2.85099  -1.67487
H    -2.77112   5.82601   0.19020
H    -1.61306   4.96716  -0.84229
H    -1.49708   4.83238   0.91486
H    -2.49745   3.37188  -3.34619
H    -4.19086   3.24662  -3.85409
H    -3.16192   1.80710  -3.82115
H    -2.32266   0.92584  -1.53111
H    -3.90688   4.52177  -1.66012
O    -0.66075  -0.56462  -1.40254
