47

Re    0.00000   0.00000   0.00000
Cl    1.89361  -1.07879  -0.79611
Cl   -1.35675  -1.74471  -0.61025
P    -1.94457   1.02220   0.99218
N    -0.22535   0.96367  -1.81830
N     1.10782   1.71661   0.26221
C    -0.93071   0.52748  -2.86767
H    -1.40045  -0.43941  -2.74507
C    -1.06210   1.23972  -4.03624
H    -1.64167   0.83013  -4.84706
C    -0.43540   2.48383  -4.16306
H    -0.52934   3.05725  -5.07146
C     0.30865   2.94929  -3.10759
H     0.82794   3.89364  -3.13680
C     0.40422   2.16812  -1.95000
C     1.13817   2.52406  -0.79316
C     1.89880   2.32083   1.21385
C     2.24859   1.94786   2.50468
H     1.88244   1.02255   2.92142
C     3.07965   2.80553   3.19884
H     3.37937   2.54886   4.20303
C     3.54730   3.99278   2.63647
H     4.19752   4.62938   3.21656
C     3.20489   4.37739   1.35113
H     3.56637   5.29120   0.90925
C     2.37505   3.52166   0.65303
C    -3.19586  -0.10147   1.68668
H    -2.72871  -0.62537   2.52079
H    -3.48508  -0.83597   0.93797
H    -4.06247   0.46405   2.02771
C    -1.61058   2.12690   2.40644
H    -1.18935   1.50457   3.19604
H    -2.53408   2.59437   2.74628
H    -0.87951   2.88870   2.14341
C    -2.82240   2.02142  -0.24133
C    -3.55734   1.34964  -1.21610
H    -3.67003   0.27699  -1.14767
C    -4.11859   2.04670  -2.26863
H    -4.69244   1.52091  -3.01704
C    -3.93500   3.41649  -2.37045
H    -4.36781   3.96071  -3.19643
C    -3.18917   4.08646  -1.41563
H    -3.03870   5.15298  -1.49779
C    -2.62910   3.39341  -0.35709
H    -2.04359   3.92320   0.38037
O     1.87757   3.63863  -0.61190
O     0.23858  -0.58878   1.52280
