50

Pd    0.00000   0.00000   0.00000
Cl   -1.85778  -0.95659   0.77595
Si    0.25934   0.88408  -3.88814
O    -0.42282   2.33239  -4.16671
O    -0.44355   0.07308  -2.64766
N    -0.66984   1.86636   0.34412
C     2.12866   0.94081  -3.46877
H     2.65834   0.81188  -4.41393
H     2.42122   1.93013  -3.11357
O    -0.03596   0.19879  -5.32319
C     2.63326  -0.12306  -2.47989
H     1.93195  -0.95512  -2.41352
H     3.59693  -0.51621  -2.80786
C     0.30749   2.78485   0.16263
C     2.84276   0.43140  -1.06251
H     3.14571  -0.40424  -0.42171
H     3.63462   1.19584  -1.07591
N     1.63391   0.97971  -0.52572
C    -1.14687   4.55151   0.86929
H    -1.33931   5.59197   1.08103
C    -1.86201   2.26867   0.77619
H    -2.60127   1.48886   0.92094
C    -2.14448   3.59561   1.04406
H    -3.12537   3.87592   1.39137
C     0.09338   4.14123   0.42713
H     0.90004   4.84346   0.28599
C     1.54565   2.24902  -0.32385
H     2.38541   2.92042  -0.50855
C     0.10830   4.38909  -3.02450
H     0.33433   4.85464  -3.97967
H    -0.30023   5.13582  -2.34891
H     1.02953   3.99260  -2.60669
C    -0.89615   3.26392  -3.23044
H    -1.83120   3.67047  -3.63073
H    -1.11200   2.76463  -2.27819
C     0.51529  -0.97546  -5.87415
H     1.53557  -0.76043  -6.21255
H     0.56952  -1.76035  -5.11204
C    -0.34316  -1.42891  -7.04464
H    -0.39813  -0.63834  -7.78760
H     0.08608  -2.31859  -7.49670
H    -1.35052  -1.65282  -6.70427
C    -2.86168   0.02764  -2.50045
H    -3.72677  -0.62495  -2.57481
H    -2.81417   0.43013  -1.48855
H    -2.95963   0.84356  -3.21334
C    -1.59586  -0.76192  -2.78545
H    -1.62379  -1.17101  -3.79895
H    -1.47914  -1.57641  -2.06037
O     0.67409  -1.49725  -0.16229
