53

Pd    0.00000   0.00000   0.00000
P     1.33995   1.74688  -0.05246
C    -2.47696  -0.15108   1.39726
C    -1.39529   0.75379   1.23885
C    -3.61406   0.12470   2.19723
C    -1.50726   1.94732   1.93277
H    -0.71315   2.68194   1.86867
C    -2.61848   2.24606   2.73004
H    -2.65137   3.19420   3.24782
C    -3.65746   1.36170   2.86461
H    -4.51415   1.59485   3.47895
C    -3.36435  -2.25896   0.82909
H    -3.20794  -3.17083   0.27348
C    -4.63374  -0.84587   2.28362
H    -5.50490  -0.64575   2.88781
C    -4.49937  -2.02554   1.59943
H    -5.25936  -2.78904   1.64308
N    -2.39810  -1.35204   0.73853
O    -1.35376  -1.60299   0.01502
C     2.75954   1.83501  -1.18369
C     2.77060   2.63132  -2.32143
H     1.91643   3.24993  -2.56009
C     4.95309   1.02099  -1.72703
H     5.79783   0.38644  -1.50403
C     4.96752   1.82508  -2.85679
H     5.82651   1.82027  -3.51152
C     3.87828   2.62591  -3.15225
H     3.88645   3.24633  -4.03663
C     2.14425   2.11528   1.53695
C     2.42675   1.51071   3.84756
H     2.18025   0.87715   4.68664
C     1.82661   1.30028   2.61937
H     1.10924   0.48927   2.47267
C     3.35207   2.53145   3.99745
H     3.82050   2.69865   4.95605
C     3.10010   3.11612   1.68289
H     3.39104   3.71124   0.82799
C     3.69350   3.32640   2.91453
H     4.43160   4.10675   3.02946
C     3.85335   1.02330  -0.89291
H     3.81951   0.38559  -0.01931
C     0.33732   3.18643  -0.54951
C    -0.70693   2.88253  -1.42303
H    -0.85327   1.83952  -1.72737
C     0.52930   4.49749  -0.13583
H     1.32225   4.73792   0.55693
C    -1.53819   3.88233  -1.88994
H    -2.34233   3.64656  -2.57103
C    -0.31362   5.49475  -0.59810
H    -0.16778   6.51358  -0.27015
C    -1.34066   5.19116  -1.47562
H    -1.99187   5.97432  -1.83453
O     1.01921  -0.76824  -1.04572
