28

Ni    0.00000   0.00000   0.00000
Br    1.32671   0.00011  -1.70182
N    -1.35373   1.65278   0.73557
O    -2.84149   0.00002   1.61749
C    -2.15995   1.19522   1.87394
H    -1.49475   1.08417   2.74210
H    -2.94326   1.93759   2.10552
C    -2.24081   2.01228  -0.37451
H    -1.64911   2.25777  -1.25717
H    -2.86325   2.87864  -0.11358
H    -2.89926   1.17558  -0.60402
C    -0.58269   2.83513   1.13542
H     0.08303   2.58600   1.96094
H    -1.24752   3.65194   1.44455
H     0.02190   3.16960   0.29206
C    -2.15995  -1.19518   1.87395
N    -1.35372  -1.65275   0.73559
C    -2.24081  -2.01225  -0.37451
H    -1.64911  -2.25774  -1.25716
H    -2.86325  -2.87860  -0.11357
H    -2.89926  -1.17555  -0.60402
C    -0.58269  -2.83510   1.13543
H     0.08303  -2.58597   1.96095
H    -1.24753  -3.65191   1.44456
H     0.02190  -3.16957   0.29207
H    -1.49476  -1.08413   2.74210
H    -2.94327  -1.93755   2.10552
O     1.16871  -0.00000   1.16474
