68

Pt    0.00000   0.00000   0.00000
Cl   -1.03641  -2.00460   0.30318
P     1.25899   1.87947  -0.31982
N    -0.00757  -0.27516  -1.96135
N     0.34555  -1.35620  -4.46227
N     1.39399  -0.99349  -3.75939
C     1.34214   1.38569  -3.06259
C     1.31080   2.37910  -2.07460
C     1.30413   3.71726  -2.44926
C     1.34441   4.07161  -3.78663
C     1.38755   3.08916  -4.75972
C     1.37914   1.75118  -4.39870
C     1.26398  -0.07503  -2.63263
C    -1.05121  -0.54290  -2.71113
C    -0.85159  -1.02596  -4.05954
C    -1.99337  -1.34470  -4.88104
C    -1.84369  -1.75771  -6.20623
C    -2.94873  -2.06677  -6.96897
C    -4.22657  -1.95836  -6.42677
C    -4.39179  -1.54328  -5.12416
C    -3.28491  -1.22936  -4.32752
C    -3.43798  -0.78684  -2.97334
C    -2.37766  -0.46827  -2.19866
C     2.62275  -1.56601  -4.08018
C     3.82314  -0.99286  -3.66146
C     5.02305  -1.58697  -4.00728
C     5.04642  -2.73656  -4.77825
C     3.85343  -3.29634  -5.20961
C     2.64841  -2.72198  -4.86271
C     0.73774   3.36777   0.56710
C    -0.62853   3.50940   0.79039
C    -1.10722   4.61728   1.46274
C    -0.22220   5.58242   1.91799
C     1.13921   5.43914   1.70326
C     1.62538   4.33323   1.02867
C     3.01927   1.69313   0.09079
C     3.32378   1.29507   1.39147
C     4.64204   1.11317   1.76458
C     5.65970   1.31564   0.84456
C     5.35835   1.70656  -0.44960
C     4.04157   1.89800  -0.83077
H     1.26939   4.48114  -1.68576
H     1.34325   5.11417  -4.06667
H     1.42225   3.35911  -5.80409
H     1.40683   0.99335  -5.16780
H     2.06702  -0.29987  -1.91270
H    -0.84726  -1.83458  -6.61313
H    -2.82544  -2.39460  -7.99050
H    -5.08846  -2.20126  -7.03036
H    -5.38211  -1.45805  -4.70073
H    -4.44114  -0.69871  -2.58279
H    -2.49565  -0.12053  -1.17810
H     3.83401  -0.08181  -3.08391
H     5.94780  -1.14020  -3.67418
H     5.98781  -3.19278  -5.04285
H     3.86304  -4.19228  -5.81169
H     1.71260  -3.15311  -5.18039
H    -1.29898   2.72738   0.44865
H    -2.16613   4.72598   1.64271
H    -0.59358   6.44520   2.45069
H     1.82546   6.18945   2.06772
H     2.68786   4.21322   0.86634
H     2.51589   1.12322   2.09082
H     4.87735   0.80717   2.77274
H     6.68917   1.16910   1.13590
H     6.15082   1.86614  -1.16644
H     3.81077   2.21469  -1.83932
O     0.02872   0.27903   1.62598
