43

Rh    0.00000   0.00000   0.00000
N    -0.12742  -0.04220  -2.70299
N    -0.66874  -0.49048  -1.64999
C     0.05965   0.06926   2.30900
C    -0.93183  -0.91457   1.90377
C    -1.94504  -0.25049   1.19179
C    -1.53623   1.12851   1.03895
C    -0.34080   1.32698   1.83297
C     1.19074  -0.24159   3.23802
H     0.79662  -0.60308   4.18948
H     1.80001   0.63920   3.42573
H     1.82982  -1.01858   2.81838
C    -0.92937  -2.32957   2.39036
H    -1.18047  -2.35373   3.45309
H     0.05579  -2.77546   2.26425
H    -1.65304  -2.93400   1.84925
C    -3.25570  -0.80926   0.73278
H    -4.04413  -0.50772   1.42509
H    -3.22606  -1.89463   0.69572
H    -3.51276  -0.44109  -0.25814
C    -2.42477   2.23180   0.54790
H    -3.05861   2.58022   1.36631
H    -3.06868   1.88590  -0.25752
H    -1.84178   3.07635   0.18638
C     0.23401   2.66379   2.19113
H    -0.34205   3.09529   3.01261
H     0.19053   3.35286   1.34992
H     1.26920   2.57590   2.51240
C     1.12640   1.15094  -1.19078
C     2.14402   2.04057  -0.87272
H     2.38570   2.25084   0.16013
C     2.86029   2.66710  -1.88017
H     3.63342   3.37582  -1.62071
C     2.61022   2.38910  -3.21807
H     3.19213   2.87660  -3.98605
C     1.63322   1.47948  -3.57022
H     1.45487   1.23520  -4.60655
C     0.90248   0.87681  -2.55280
C    -0.59915  -0.48213  -3.99753
H    -1.41978  -1.17896  -3.83750
H     0.20500  -0.98507  -4.53627
H    -0.94548   0.37153  -4.58219
O     1.29693  -1.01969  -0.02648
