39

C     0.53463   0.60845  -2.54856
C     0.10119  -0.75450  -2.57293
C    -0.59775  -2.62462  -1.27383
C    -0.24995  -3.19864   0.09685
C    -1.03201  -2.54192   1.23069
C    -0.78473  -0.57081   2.53336
C    -0.32279   0.79887   2.55260
C     0.93865   1.40022  -3.75156
C    -0.04879  -1.50164  -3.85854
C    -1.39258  -1.20032   3.74501
C    -0.31574   1.65360   3.77667
N     0.55688   1.12280  -1.34752
N    -0.14802  -1.26308  -1.40907
N    -0.63387  -1.17139   1.40447
N     0.09566   1.21805   1.40121
O     0.55131   2.46684   1.31342
Cl    2.08055  -0.61073   0.35696
Co    0.00000   0.00000   0.00000
H    -0.12918  -3.25169  -2.04026
H    -1.68608  -2.64814  -1.42105
H    -0.46776  -4.26784   0.09384
H     0.81695  -3.05679   0.27727
H    -0.86102  -3.10916   2.15264
H    -2.10604  -2.56279   1.00285
H     1.29221   2.37346  -3.41854
H     0.09070   1.54661  -4.41954
H     0.10551  -0.84317  -4.70592
H     0.67989  -2.31107  -3.90909
H    -1.04551  -1.93546  -3.92363
H    -2.34830  -1.65402   3.48622
H    -0.73781  -1.98385   4.12824
H    -1.55213  -0.46769   4.52800
H     0.22080   2.57495   3.56552
H    -1.33526   1.90431   4.06814
H     0.79103   2.60104   0.29966
O     0.92773   2.32176  -1.14213
H     1.73797   0.89881  -4.29437
H     0.17142   1.13691   4.60116
O    -1.56835   0.42702  -0.28359
