31

Cd    0.00000   0.00000   0.00000
I     1.39124   0.50655  -2.24096
N    -1.93372   1.45195  -0.24434
N     1.22956   1.28285   1.66513
C    -2.08901   2.21194  -1.32482
H    -1.26194   2.22635  -2.02572
C    -3.23089   2.96064  -1.58402
C    -4.25757   2.90307  -0.64621
H    -5.16597   3.46682  -0.80267
C    -4.10136   2.11722   0.48205
H    -4.87909   2.05082   1.22622
C    -2.92415   1.40588   0.64280
H    -2.76990   0.77464   1.50948
C    -3.35406   3.77473  -2.83002
H    -3.79944   4.74346  -2.61334
H    -4.00034   3.26220  -3.54262
H    -2.38376   3.92276  -3.29625
C     1.27827   0.88405   2.93351
H     0.62979   0.05796   3.20272
C     2.10214   1.46046   3.89245
C     2.91297   2.51625   3.48547
H     3.57507   2.99392   4.19322
C     2.86284   2.94062   2.16958
H     3.48002   3.75422   1.82286
C     2.00808   2.29487   1.29173
H     1.94930   2.59426   0.25240
C     2.11315   0.96757   5.30235
H     3.13422   0.78551   5.63230
H     1.54151   0.04861   5.39811
H     1.67904   1.71726   5.96344
O    -0.61040  -1.24516   0.89414
