45

Cu    0.00000   0.00000   0.00000
P    -1.86963   0.00002   1.14385
C    -3.06633  -1.42604   0.99036
H    -3.83850  -1.27583   1.75554
C    -2.36640  -2.73163   1.21267
H    -2.72870  -3.35177   2.02127
C    -1.32693  -3.14075   0.47447
H    -0.81856  -4.05389   0.75808
C    -0.81785  -2.49331  -0.70409
H     0.21069  -2.71305  -0.96107
C    -1.57849  -1.82386  -1.60371
H    -1.12042  -1.51916  -2.53602
C    -2.99713  -1.64137  -1.50074
H    -3.53447  -1.61782  -2.44046
C    -3.69513  -1.52412  -0.36429
H    -4.77590  -1.50156  -0.40115
C    -1.66626  -0.00000   2.97743
H    -2.64309  -0.00004   3.48622
C    -0.84296  -1.15312   3.45708
H    -0.25346  -1.69986   2.73289
C    -0.83949  -1.48217   4.75710
H    -0.33905  -2.38740   5.07452
C    -1.41487  -0.67758   5.79290
H    -1.71931  -1.19227   6.69514
C    -3.06634   1.42608   0.99045
H    -3.83851   1.27581   1.75561
C    -2.36644   2.73168   1.21283
H    -2.72883   3.35181   2.02140
C    -1.32693   3.14081   0.47471
H    -0.81858   4.05396   0.75833
C    -0.81777   2.49333  -0.70380
H     0.21081   2.71302  -0.96069
C    -1.57836   1.82388  -1.60346
H    -1.12022   1.51911  -2.53572
C    -2.99702   1.64147  -1.50061
H    -3.53428   1.61796  -2.44038
C    -3.69509   1.52426  -0.36421
H    -4.77587   1.50177  -0.40111
C    -1.41502   0.67788   5.79282
C    -0.83973   1.48244   4.75697
C    -0.84309   1.15324   3.45699
H    -0.25365   1.70001   2.73277
H    -0.33941   2.38777   5.07433
H    -1.71946   1.19259   6.69504
O     1.53242  -0.00013  -0.61172
