25

Pt    0.00000   0.00000   0.00000
Cl   -0.30577   0.50941   2.15888
N    -2.01514   0.24602  -2.36158
H    -2.79858   0.14750  -2.99314
N    -1.21500   1.53029  -0.54470
N     0.17692  -0.53768  -1.94825
C    -0.90437  -0.48742  -2.73495
C    -0.95107  -1.16515  -3.95749
H    -1.85117  -1.13267  -4.55232
C     0.15861  -1.86408  -4.38660
H     0.13763  -2.39751  -5.32392
C     1.30035  -1.84923  -3.59550
H     2.19867  -2.35805  -3.90139
C     1.26293  -1.18362  -2.38782
H     2.11493  -1.17698  -1.72333
C    -2.12297   1.32686  -1.50637
C    -3.20509   2.19462  -1.68543
H    -3.93857   1.98352  -2.44861
C    -3.31647   3.31207  -0.88360
H    -4.14780   3.98873  -1.00437
C    -2.32920   3.55122   0.06394
H    -2.35977   4.42338   0.69468
C    -1.30680   2.63566   0.20335
H    -0.53797   2.76170   0.95206
O     0.90591  -1.30332   0.45077
