51

Hg    0.00000   0.00000   0.00000
N     0.51053   2.29363  -0.86016
N     0.74404   3.24626   0.07518
N     0.97846   3.74799   2.34828
N    -0.17977   1.83758   1.60757
N     0.07457   2.21471   3.90324
N    -0.92737   0.28212   3.12134
N    -1.21975  -0.54779   2.09225
N     1.12155   4.07952   4.65945
N     0.65931   3.74584   5.88664
C     0.68753   2.05006  -3.29181
H     0.13143   1.13043  -3.12004
H     1.68104   1.79612  -3.66045
H     0.18476   2.64523  -4.05126
C     0.80021   2.81597  -2.03016
C     1.21977   4.15780  -1.86098
H     1.51043   4.83967  -2.63387
C     1.18012   4.40563  -0.51668
C     1.49777   5.64790   0.21951
H     1.51360   6.48447  -0.47436
H     2.47565   5.56451   0.68956
H     0.76172   5.82860   0.99851
C     0.51431   2.94967   1.39637
C     0.71487   3.33541   3.59049
C    -0.32568   1.48375   2.88300
C    -1.07457   0.37644   5.63199
H    -1.48574  -0.24902   6.41967
H    -1.54889   1.35508   5.65131
H    -0.01481   0.54419   5.81240
C    -1.27656  -0.28262   4.32536
C    -1.81466  -1.50331   4.02317
H    -2.19979  -2.22752   4.71166
C    -1.75191  -1.63130   2.61320
C    -2.19606  -2.77172   1.78006
H    -2.06640  -2.53280   0.72603
H    -3.24414  -2.99383   1.97412
H    -1.61139  -3.65865   2.02046
C     0.95298   4.50346   8.19281
H     0.23732   3.71373   8.39929
H     0.55255   5.45578   8.53707
H     1.87463   4.30839   8.73894
C     1.22710   4.55952   6.73674
C     2.10254   5.45293   6.05824
H     2.70721   6.21844   6.49980
C     2.01733   5.12832   4.73587
C     2.72308   5.70456   3.57125
H     3.55776   6.30821   3.91870
H     2.04961   6.33647   2.99520
H     3.08803   4.91335   2.92121
Cl    2.05700  -0.30635   0.97176
O    -1.01405  -0.56664  -1.17181
