29

Re    0.00000   0.00000   0.00000
N    -0.78848  -1.83385  -0.75231
C    -1.25335  -2.55157   3.94737
N    -0.28212  -1.17273   1.73820
C    -1.08704  -2.24257   1.57111
C    -1.58578  -2.95384   2.65777
H    -2.23435  -3.80360   2.52069
C    -1.77300  -3.17011  -2.46561
H    -1.90282  -3.35131  -3.52005
C    -2.19060  -3.68108  -0.17820
H    -2.66853  -4.28438   0.57560
C    -1.37668  -2.60694   0.17908
C    -0.40722  -1.45142   4.10854
H    -0.12305  -1.10943   5.09060
C     0.04664  -0.80730   2.97635
H     0.70521   0.04718   3.06547
C    -2.40151  -3.96011  -1.51497
H    -3.04318  -4.77667  -1.80772
C    -0.97845  -2.12306  -2.03541
H    -0.47516  -1.48512  -2.75057
O     0.54399   2.62719   1.53594
O    -0.32916   1.53131  -2.66591
C     0.40884   1.66347   0.93688
C    -0.13159   0.98273  -1.68352
N    -2.16910  -3.83427   5.96596
C    -1.76030  -3.25532   5.06634
C     1.86348  -0.49299  -0.25276
O     2.95659  -0.81625  -0.38861
O    -1.60727   0.27527   0.25183
