43

Au    0.00000   0.00000   0.00000
S     2.04455   0.37321   2.62288
P    -0.97679  -0.47955   1.95786
N    -0.04663  -1.35685   3.01189
N     1.99047  -1.77704   4.01943
H     1.65624  -2.62717   4.44647
C    -2.48682  -1.46366   1.92382
C    -2.56977  -2.73519   2.47309
H    -1.70939  -3.14901   2.97719
C    -3.75158  -3.44746   2.36873
H    -3.82329  -4.43647   2.79763
C    -4.84056  -2.89792   1.71280
H    -5.76014  -3.45865   1.63290
C    -4.75284  -1.63277   1.15140
H    -5.60116  -1.21055   0.63384
C    -3.57568  -0.91741   1.25074
H    -3.48356   0.06859   0.81202
C    -1.47421   0.98549   2.91423
C    -1.15197   2.25635   2.45934
H    -0.63102   2.36748   1.51637
C    -1.50420   3.36286   3.21246
H    -1.25806   4.35351   2.86025
C    -2.17128   3.19771   4.41500
H    -2.44686   4.06233   5.00062
C    -2.48743   1.92664   4.87147
H    -3.00744   1.80313   5.81027
C    -2.13937   0.81778   4.12447
H    -2.37662  -0.18179   4.46333
C     1.17813  -1.03864   3.23528
C     3.28785  -1.32542   4.15191
C     3.50868  -0.14062   3.44677
C     4.30962  -1.93007   4.88155
C     5.54545  -1.30068   4.87093
H     6.36007  -1.74329   5.42394
C     5.76334  -0.12266   4.16763
H     6.74107   0.33241   4.18416
C     4.74698   0.47438   3.44416
H     4.90537   1.38520   2.89116
C     4.06327  -3.20391   5.63017
H     4.96450  -3.51862   6.14826
H     3.76505  -3.99924   4.94706
H     3.27137  -3.07111   6.36727
O     0.76968   0.37753  -1.40981
