62

Rh    0.00000   0.00000   0.00000
P     0.68055  -0.96564   1.93368
O    -1.58002   3.21694   1.80316
H    -2.08031   3.96680   1.46290
N    -0.57198   1.05421   3.00213
H    -0.71949   1.19377   1.99466
C    -0.65349   0.14279  -2.05906
H    -1.46818  -0.57177  -2.17886
C    -0.93336   1.34360  -1.44064
H    -1.94581   1.49742  -1.06794
C    -0.12311   2.60280  -1.64504
H    -0.79088   3.46524  -1.59694
H     0.31533   2.58903  -2.64368
C     0.97004   2.76644  -0.57270
H     1.78325   3.39362  -0.95492
H     0.53844   3.27884   0.29054
C     1.53374   1.45365  -0.08232
H     2.02432   1.54116   0.88806
C     1.90225   0.37727  -0.88778
H     2.63234  -0.31975  -0.47291
C     1.86195   0.41182  -2.40199
H     2.67285  -0.20611  -2.79326
H     2.04632   1.43258  -2.73973
C     0.52708  -0.11274  -2.96700
H     0.33076   0.33728  -3.94651
H     0.60754  -1.19233  -3.11925
C    -0.36026  -0.33583   3.32608
H    -1.29355  -0.92003   3.36566
H     0.16821  -0.42936   4.28215
C    -1.91831   3.01694   3.12069
C    -1.41147   1.86066   3.74373
C    -1.74153   1.62975   5.07396
H    -1.37340   0.74447   5.56861
C    -2.54444   2.51977   5.76898
H    -2.78852   2.31962   6.80157
C    -3.03883   3.64885   5.14748
H    -3.67076   4.33973   5.68376
C    -2.72465   3.89291   3.81733
H    -3.11622   4.77000   3.31772
C     0.51876  -2.77097   2.02895
C     0.57324  -3.45495   3.23812
H     0.71843  -2.90933   4.16013
C     0.44218  -4.83146   3.25347
H     0.47579  -5.36481   4.19239
C     0.26501  -5.52783   2.06807
H     0.15881  -6.60256   2.08695
C     0.22123  -4.84925   0.86107
H     0.08286  -5.39425  -0.06112
C     0.34827  -3.47252   0.84170
H     0.29994  -2.91722  -0.09059
C     2.36571  -0.71242   2.58592
C     2.67609   0.45186   3.28326
H     1.89716   1.17259   3.49198
C     3.97178   0.68203   3.70790
H     4.20616   1.58358   4.25518
C     4.96978  -0.23790   3.42864
H     5.98133  -0.05582   3.76039
C     4.67001  -1.38876   2.71832
H     5.44793  -2.10425   2.49452
C     3.37531  -1.62275   2.29187
H     3.13799  -2.51941   1.73491
O    -1.42203  -0.71850   0.42905
