60

Pd    0.00000   0.00000   0.00000
O     0.52282   1.51338  -1.16902
N    -0.42450  -1.58969   1.11276
N    -0.72858  -1.44319   2.40905
N     1.16325   0.76097   1.52756
C    -0.14424  -3.38976  -0.53147
H    -1.05517  -3.51157  -1.11604
H     0.36763  -4.34712  -0.46727
H     0.48598  -2.65676  -1.04799
C    -0.47404  -2.88198   0.82420
C    -0.83185  -3.58736   1.98355
H    -0.96350  -4.64546   2.07638
C    -0.97785  -2.64419   2.97994
C    -1.34263  -2.80758   4.41030
H    -0.54405  -2.45534   5.06338
H    -1.51888  -3.85867   4.61820
H    -2.25017  -2.25199   4.64475
C    -0.58142  -0.14384   3.00998
H    -0.87211  -0.20278   4.05929
H    -1.23757   0.57188   2.48374
C     0.87993   0.32863   2.87945
H     1.05620   1.14564   3.59356
H     1.54330  -0.50788   3.14301
C     1.94498   1.78103   1.35927
H     2.39896   2.22228   2.25379
C     2.32417   2.38436   0.13601
C     3.41439   3.28271   0.17085
H     3.87199   3.45778   1.13230
C     3.89283   3.88243  -0.95960
C     3.27644   3.54520  -2.18302
H     3.68931   3.97465  -3.07987
C     2.19882   2.70861  -2.29049
C     1.63336   2.14450  -1.09509
C     5.05496   4.86317  -0.96738
C     5.60266   5.13194   0.43715
H     4.83146   5.54430   1.08376
H     6.41484   5.85396   0.37888
H     5.99469   4.22140   0.88465
C     4.57756   6.19826  -1.55574
H     4.22735   6.07880  -2.57706
H     5.39078   6.92139  -1.55704
H     3.75932   6.59868  -0.96074
C     6.19539   4.29540  -1.82380
H     6.51928   3.33478  -1.42846
H     7.04439   4.97612  -1.81769
H     5.88391   4.15115  -2.85442
C     1.59274   2.31901  -3.63341
C     2.36787   2.90840  -4.81721
H     3.40544   2.58015  -4.81334
H     2.33400   3.99593  -4.81013
H     1.91261   2.56810  -5.74502
C     1.62429   0.78791  -3.76930
H     1.22686   0.49423  -4.73817
H     1.01793   0.30980  -2.99983
H     2.64753   0.42347  -3.68664
C     0.14489   2.82091  -3.71690
H    -0.27330   2.58671  -4.69347
H     0.10960   3.89933  -3.57135
H    -0.46744   2.34421  -2.95799
O    -1.12080  -0.44321  -1.12688
