63

Ni    0.00000   0.00000   0.00000
Cl   -0.75844   0.70711   1.85973
N     1.67486  -0.35500   0.76849
N     3.87584  -0.08238   0.83083
N    -1.36394   0.86115  -0.96502
N    -2.19850   2.70458  -1.87475
C     2.72049   0.18513   0.16823
C     3.53862  -0.83777   1.93215
C     2.13982  -1.00435   1.88001
C     1.46848  -1.74117   2.84880
H     0.39719  -1.85329   2.79891
C     2.22686  -2.29579   3.85631
H     1.74319  -2.87233   4.62994
C     3.61414  -2.13592   3.90179
H     4.16895  -2.59577   4.70599
C     4.29441  -1.40850   2.94627
H     5.36766  -1.30038   2.98633
C     5.19616   0.41273   0.53260
H     5.19262   0.81153  -0.48410
H     5.89726  -0.42698   0.57832
C     5.62519   1.50051   1.51545
H     4.95972   2.35807   1.45213
H     6.63482   1.82791   1.28252
H     5.60345   1.12788   2.53606
C     2.61065   0.83691  -1.14148
C     1.67055   1.85790  -1.36529
C     1.43381   2.27226  -2.67425
H     0.71279   3.05836  -2.85186
C     2.11144   1.70534  -3.73650
H     1.89912   2.03006  -4.74396
C     3.05997   0.72356  -3.50702
H     3.59029   0.27550  -4.33297
C     3.30046   0.28641  -2.21882
H     3.98258  -0.53330  -2.04811
C    -1.27094   2.17660  -1.03576
C    -2.39111   0.48696  -1.79000
C    -2.92536   1.65008  -2.38096
C    -3.96834   1.58137  -3.29334
H    -4.37046   2.46457  -3.76598
C    -4.46921   0.32758  -3.57954
H    -5.28151   0.23426  -4.28487
C    -3.95304  -0.82507  -2.98222
H    -4.38141  -1.78169  -3.23947
C    -2.91084  -0.76845  -2.08299
H    -2.48927  -1.65002  -1.62759
C    -2.38849   4.09384  -2.20533
H    -2.43802   4.18416  -3.29608
H    -1.51824   4.64989  -1.84599
C    -3.66506   4.65631  -1.58455
H    -4.53470   4.10572  -1.93313
H    -3.77794   5.70135  -1.85996
H    -3.63010   4.58406  -0.50070
C    -0.31550   2.93843  -0.22296
C     1.05622   2.63264  -0.26242
C     1.89789   3.22487   0.67549
H     2.95371   2.99669   0.64099
C     1.40905   4.10195   1.62444
H     2.07828   4.53522   2.35256
C     0.06333   4.42529   1.63618
H    -0.32548   5.11028   2.37362
C    -0.79239   3.84132   0.72218
H    -1.85137   4.03984   0.77697
O     0.32568  -0.99166  -1.27791
