63

C     0.32355  -0.71966  -2.66928
C    -0.07382  -1.42775  -3.89958
C     0.77422  -1.37102  -5.01195
C     0.48992  -2.07339  -6.17178
C    -0.64732  -2.87670  -6.19439
C    -1.49653  -2.94448  -5.10065
C    -1.27066  -2.19679  -3.93306
C    -1.65042  -1.53947  -1.71016
C    -2.58959  -1.67579  -0.56756
H    -2.65292  -0.73723   0.00791
H    -2.20995  -2.44826   0.11293
C    -3.88047  -2.07428  -1.27104
H    -4.46219  -1.17900  -1.49225
H    -4.49520  -2.74511  -0.67643
C    -3.44462  -2.75160  -2.59302
C    -4.43826  -2.36548  -3.68681
H    -4.29155  -1.32761  -3.97882
H    -5.44383  -2.46751  -3.28618
H    -4.37547  -2.99428  -4.56579
C    -3.32990  -4.26116  -2.38751
H    -4.31194  -4.66543  -2.15851
H    -2.66107  -4.47666  -1.55726
H    -2.95903  -4.76975  -3.27006
N    -0.55007  -0.87662  -1.61420
N    -2.09162  -2.16935  -2.82450
O     1.32195  -0.05525  -2.50105
F     1.87723  -0.63845  -4.97426
F     1.29062  -2.00913  -7.23564
F    -0.92919  -3.60619  -7.27276
F    -2.52027  -3.80322  -5.22405
Cl    1.04930  -1.92312   0.65334
Pd    0.00000   0.00000   0.00000
C    -0.32502   0.71819   2.67055
C     0.07230   1.42623   3.90092
C    -0.77565   1.36928   5.01335
C    -0.49132   2.07151   6.17327
C     0.64582   2.87495   6.19590
C     1.49492   2.94300   5.10210
C     1.26905   2.19541   3.93444
C     1.64883   1.53833   1.71151
C     2.58786   1.67491   0.56883
H     2.65125   0.73641  -0.00671
H     2.20804   2.44735  -0.11158
C     3.87872   2.07356   1.27224
H     4.46061   1.17835   1.49332
H     4.49328   2.74453   0.67762
C     3.44284   2.75072   2.59430
C     4.43664   2.36471   3.68796
H     4.29001   1.32685   3.98005
H     5.44216   2.46676   3.28719
H     4.37394   2.99356   4.56691
C     3.32784   4.26027   2.38886
H     4.30981   4.66472   2.15989
H     2.65899   4.47569   1.55861
H     2.95687   4.76873   3.27144
N     0.54864   0.87527   1.61548
N     2.08995   2.16822   2.82584
O    -1.32343   0.05376   2.50230
F    -1.87860   0.63662   4.97565
F    -1.29192   2.00701   7.23719
F     0.92769   3.60433   7.27435
F     2.51853   3.80189   5.22550
O    -0.75909   1.38740  -0.47054
