57

Co    0.00000   0.00000   0.00000
O    -0.79344   1.40620   2.19282
O    -1.26063  -0.47862  -2.36879
O     1.00273  -1.61666  -2.26686
O     1.50946   0.39576   2.51236
N    -1.04999   1.17354   0.95691
N    -1.30278   0.21584  -1.29149
N     1.23739  -1.14155  -1.02462
N     1.48314  -0.16809   1.28618
N    -0.95632  -1.54540   0.75038
C    -2.05785   1.67280   0.30449
C    -3.01101   2.61622   0.90331
C    -2.54747   3.69356   1.65329
C    -3.44275   4.58468   2.21473
C    -4.80502   4.40667   2.04144
C    -5.27181   3.32771   1.30826
C    -4.38320   2.43398   0.74201
C    -2.18927   1.13157  -1.03019
C    -3.19896   1.58639  -1.99371
C    -3.43887   2.95133  -2.14691
C    -4.37746   3.39172  -3.05927
C    -5.08516   2.48158  -3.82820
C    -4.84082   1.12612  -3.68953
C    -3.90040   0.67730  -2.78046
C    -1.34765  -2.55194  -0.03316
C    -1.94495  -3.69744   0.46073
C    -2.15405  -3.81473   1.82549
C    -1.76412  -2.76176   2.63698
C    -1.17279  -1.65098   2.06235
C     2.38607  -1.34332  -0.48001
C     2.52663  -0.78487   0.85331
C     3.79993  -0.90765   1.62021
C     3.50673  -2.06968  -1.14409
H    -1.48550   3.83131   1.78428
H    -3.07516   5.42219   2.78906
H    -5.50306   5.10461   2.48002
H    -6.33406   3.18059   1.17782
H    -4.75051   1.58762   0.18050
H    -2.87446   3.66112  -1.56189
H    -4.55534   4.45081  -3.17409
H    -5.81997   2.82952  -4.53934
H    -5.38385   0.41357  -4.29319
H    -3.70790  -0.37952  -2.67762
H    -1.19614  -2.43990  -1.09828
H    -2.23972  -4.48028  -0.21964
H    -2.61413  -4.69723   2.24295
H    -1.91441  -2.79223   3.70417
H    -0.88292  -0.81307   2.68240
H     4.13225  -1.94323   1.65343
H     3.65143  -0.53714   2.63126
H     4.57608  -0.31268   1.14038
H     4.40586  -1.45715  -1.13887
H     3.23091  -2.29657  -2.17084
H     3.72147  -2.99967  -0.61866
H     0.09218  -1.19108  -2.51654
H     0.61755   0.92083   2.55246
O     0.78113   1.30897  -0.63160
