70

Pt    0.00000   0.00000   0.00000
P     0.96619  -1.74471  -1.08190
O     2.57435  -1.95492  -1.27363
O     0.56805  -3.19462  -0.45440
N     0.02474   2.08975   1.99892
N    -1.86880   2.25732   0.99459
N     0.56055  -1.72838  -2.69215
C     1.64928   1.15452  -0.19913
C     2.33095   1.30618  -1.40137
H     1.96543   0.81846  -2.29729
C     3.49161   2.06118  -1.47524
H     4.00738   2.16308  -2.41973
C     3.99696   2.67388  -0.34198
H     4.90640   3.25449  -0.39447
C     3.32585   2.54462   0.86244
H     3.71133   3.02708   1.75103
C     2.16311   1.79428   0.93239
C     1.39322   1.68322   2.23365
H     1.40337   0.64253   2.58889
H     1.82398   2.32239   3.00706
C    -0.71721   1.56395   1.00586
C    -0.65274   3.10484   2.60873
H    -0.24557   3.66208   3.42719
C    -1.84950   3.20598   1.98075
H    -2.67289   3.86790   2.15247
C    -2.96149   2.04822   0.08371
H    -2.59103   1.52917  -0.80120
H    -3.38749   3.00760  -0.20853
H    -3.73441   1.43162   0.54693
C     3.26180  -2.23390  -0.10282
C     3.98473  -1.20213   0.51529
H     4.00233  -0.23375   0.04259
C     4.65286  -1.44457   1.68020
H     5.22169  -0.65802   2.15386
C     4.58699  -2.71035   2.29969
C     5.21374  -2.95703   3.53902
H     5.77501  -2.15655   3.99964
C     5.10458  -4.17377   4.15073
H     5.58587  -4.35408   5.10060
C     4.34722  -5.19235   3.55417
H     4.24114  -6.14069   4.05973
C     3.73978  -4.99082   2.34614
H     3.14616  -5.77577   1.90347
C     3.86090  -3.75694   1.67169
C     3.23522  -3.51086   0.41690
C     1.22301  -4.37357  -0.71633
C     0.48059  -5.39184  -1.34018
H    -0.55275  -5.19068  -1.57785
C     1.06214  -6.59525  -1.60761
H     0.49231  -7.38759  -2.06991
C     2.42454  -6.81673  -1.31227
C     3.06151  -8.02947  -1.64651
H     2.47507  -8.80603  -2.11637
C     4.39139  -8.21672  -1.39437
H     4.87234  -9.14805  -1.65430
C     5.14437  -7.18804  -0.81042
H     6.20103  -7.33362  -0.64077
C     4.55347  -6.00557  -0.46113
H     5.14542  -5.21527  -0.02514
C     3.17516  -5.79237  -0.67726
C     2.53047  -4.57250  -0.32471
C     0.91864  -2.77653  -3.61889
H     1.74947  -3.35117  -3.21330
H     1.23285  -2.33510  -4.56892
H     0.07679  -3.45169  -3.81045
C    -0.49915  -0.84861  -3.12791
H    -0.66415  -0.08652  -2.34766
H    -1.43618  -1.38956  -3.30004
H    -0.21082  -0.34275  -4.05379
O    -1.33277  -0.94559   0.22824
