51

Hg    0.00000   0.00000   0.00000
Br   -0.14405  -1.55337  -1.88755
N    -2.16714  -0.78137   1.11884
C    -2.74190  -1.92192   0.72863
C    -3.77156  -2.48358   1.46618
N    -4.23433  -1.91395   2.56448
C    -3.67895  -0.76335   2.94079
C    -2.62389  -0.19083   2.21340
N    -4.21553  -0.22397   4.08805
C    -3.97005   1.01811   4.64324
O    -3.22418   1.82279   4.15548
C    -4.77240   1.22735   5.91975
C    -4.39742   2.51123   6.59142
C    -4.67346   3.79065   6.04263
C    -4.21537   4.80164   6.81888
S    -3.43710   4.22431   8.23843
C    -3.73081   2.59835   7.77351
N     0.61453   2.03178  -1.42500
C     1.12096   1.86189  -2.64897
C     1.71560   2.91756  -3.32140
N     1.79110   4.12689  -2.79532
C     1.25969   4.30451  -1.58733
C     0.67053   3.24077  -0.88657
N     1.36184   5.58685  -1.10071
C     0.78231   6.11709   0.03029
O     0.04621   5.50232   0.75620
C     1.16613   7.57381   0.23959
C     2.64289   7.77119   0.09537
C     3.59116   7.19690   0.98404
C     4.86944   7.48704   0.64268
S     4.95886   8.46504  -0.76853
C     3.24519   8.47596  -0.90190
H    -2.37007  -2.38557  -0.17359
H    -4.23719  -3.41434   1.17601
H    -2.15908   0.73121   2.53180
H    -4.91595  -0.81960   4.51304
H    -5.83314   1.24204   5.65045
H    -4.59803   0.38458   6.59190
H    -5.18046   3.93570   5.10618
H    -4.28226   5.85728   6.64812
H    -3.39241   1.80013   8.40417
H     1.05174   0.87564  -3.08493
H     2.14721   2.79467  -4.30425
H     0.26255   3.38095   0.10402
H     1.91545   6.20162  -1.68702
H     0.83336   7.86078   1.23874
H     0.62951   8.18185  -0.49252
H     3.31488   6.59800   1.83290
H     5.77421   7.18852   1.13278
H     2.78280   9.01905  -1.70290
O     0.69204   0.58713   1.37799
