46

Pd    0.00000   0.00000   0.00000
Cl    0.07993   1.85828  -1.25010
N    -1.36697   0.84651   1.21189
N    -1.07648   0.93406   2.51272
N     0.29413  -1.64220   1.43419
C    -2.53252   1.45468   1.00863
C    -3.00996   1.93381   2.24282
H    -3.91850   2.46879   2.42528
C    -2.06033   1.58756   3.18322
C    -3.16199   1.56473  -0.30136
C    -2.88672   0.64763  -1.31701
H    -2.19099  -0.17752  -1.13921
C    -3.48356   0.77976  -2.55609
H    -3.25462   0.07178  -3.33830
C    -4.36628   1.81953  -2.79936
H    -4.82689   1.92329  -3.77049
C    -4.65072   2.72960  -1.79541
H    -5.33281   3.54595  -1.98239
C    -4.05508   2.60475  -0.55484
H    -4.26134   3.33245   0.21528
C    -2.03726   1.88123   4.61236
C    -3.16935   1.63148   5.38472
H    -4.04140   1.19649   4.91980
C    -3.17287   1.93009   6.73431
H    -4.05358   1.73041   7.32578
C    -2.05111   2.48581   7.32743
H    -2.05546   2.71927   8.38128
C    -0.92786   2.75310   6.56273
H    -0.05814   3.20300   7.01760
C    -0.91767   2.45532   5.21231
H    -0.05341   2.70291   4.61306
C     0.06285   0.22773   3.03990
H     0.12390   0.43080   4.11045
H     0.97831   0.59689   2.54197
C    -0.07294  -1.28809   2.80073
H     0.55509  -1.81954   3.53125
H    -1.11453  -1.57866   2.97415
C    -0.17704  -2.95959   0.99416
H    -0.22180  -3.65385   1.84426
H     0.53967  -3.34208   0.26421
C    -1.53691  -2.84455   0.31588
H    -2.27253  -2.38020   0.97210
H    -1.90086  -3.82701   0.02779
H    -1.41888  -2.23827  -0.59030
H     1.31399  -1.61508   1.33487
O     1.15975  -0.74338  -0.90823
