61

Pd    0.00000   0.00000   0.00000
Cl    1.12769   1.97092   0.31024
N     1.68826  -1.03203  -0.02872
N     2.08250  -1.86507   0.93625
O     3.43803   2.20121   3.41149
C     2.37279   0.19118   2.81392
H     3.16451   0.05589   2.09279
C     2.40125   1.34777   3.58874
C     1.40248   1.57402   4.52792
H     1.41348   2.48056   5.11807
C     0.40248   0.63544   4.70673
H    -0.36436   0.80746   5.44739
C     0.37407  -0.51555   3.94052
H    -0.39850  -1.25461   4.09485
C     1.34942  -0.73039   2.96927
C     1.29591  -1.99384   2.13226
H     1.66525  -2.84714   2.70759
H     0.25407  -2.19374   1.83103
C     3.28199  -2.40568   0.63821
C     3.65079  -1.89554  -0.59165
H     4.54330  -2.11542  -1.14047
C     2.61673  -1.03240  -0.97301
C     3.98866  -3.35920   1.53126
H     4.18201  -2.90874   2.50477
H     4.93787  -3.63791   1.08272
H     3.39756  -4.26292   1.67990
C     2.45075  -0.19097  -2.18529
H     1.39056  -0.19301  -2.46712
H     3.05281  -0.56797  -3.00780
H     2.74830   0.83575  -1.96359
H     3.28541   3.01403   3.90788
N    -1.68769   1.03306   0.02758
N    -2.08146   1.86540  -0.93818
O    -3.43869  -2.20070  -3.41304
C    -2.37247  -0.19117  -2.81559
H    -3.16380  -0.05579  -2.09405
C    -2.40172  -1.34756  -3.59066
C    -1.40349  -1.57396  -4.53037
H    -1.41507  -2.48037  -5.12072
C    -0.40323  -0.63569  -4.70944
H     0.36313  -0.80776  -5.45059
C    -0.37403   0.51509  -3.94294
H     0.39867   1.25397  -4.09752
C    -1.34884   0.73007  -2.97119
C    -1.29442   1.99336  -2.13398
H    -1.66269   2.84708  -2.70938
H    -0.25246   2.19220  -1.83240
C    -3.28122   2.40600  -0.64117
C    -3.65068   1.89651   0.58876
H    -4.54358   2.11645   1.13691
C    -2.61674   1.03373   0.97124
C    -3.98738   3.35889  -1.53528
H    -4.17982   2.90786  -2.50866
H    -4.93691   3.63777  -1.08761
H    -3.39614   4.26255  -1.68405
C    -2.45156   0.19276   2.18394
H    -1.38996   0.18692   2.46040
H    -3.04647   0.57576   3.00885
H    -2.75824  -0.83189   1.96556
H    -3.28662  -3.01350  -3.90964
O    -0.81127  -1.41916  -0.22434
