27

Hg    0.00000   0.00000   0.00000
S     1.19384   1.43455   2.17546
N    -0.57695   3.36013   1.97103
H     0.05314   3.66854   1.23566
C    -0.24222   2.20771   2.60926
C    -1.12497   1.75037   3.61043
H    -0.88016   0.83725   4.12740
C    -2.28340   2.42805   3.86815
H    -2.97108   2.05890   4.61320
C    -2.59180   3.60109   3.15349
H    -3.50725   4.13568   3.33956
C    -1.71338   4.04027   2.20726
H    -1.88652   4.91924   1.60641
I     1.74567  -1.76388  -0.91547
S    -1.19032  -1.43471   2.17735
C     0.24608  -2.20745   2.61088
N     0.58202  -3.35854   1.97095
H    -0.04716  -3.66593   1.23438
C     1.71859  -4.03848   2.20698
C     2.59621  -3.60015   3.15434
C     2.28697  -2.42805   3.87016
C     1.12824  -1.75069   3.61283
H     0.88282  -0.83825   4.13075
H     2.97380  -2.05996   4.61657
H     3.51197  -4.13439   3.33996
H     1.89258  -4.91642   1.60489
O    -1.08976   1.10035  -0.56936
