55

Ni    0.00000   0.00000   0.00000
P     0.80265  -0.39208   1.91426
N    -0.61620   0.82553  -1.79044
C     0.73601   1.72219  -0.11666
C     0.14910   1.98784  -1.35340
C     0.30613   3.18482  -2.02683
C     1.09479   4.15567  -1.42833
C     1.69946   3.91278  -0.20554
C     1.52965   2.70524   0.45804
C    -0.07995   0.24349  -3.01664
C    -2.03653   1.12044  -1.94612
C     0.58499   0.99381   3.08124
C    -0.60420   1.70832   2.96718
C    -0.87086   2.76560   3.81490
C     0.05874   3.12329   4.77888
C     1.24773   2.42200   4.88997
C     1.51384   1.35667   4.04646
C     2.59179  -0.72841   1.91137
C     3.33214  -0.39281   0.78448
C     4.69520  -0.62407   0.74877
C     5.32539  -1.19715   1.84066
C     4.58976  -1.54709   2.96239
C     3.22648  -1.31961   3.00058
C     0.17875  -1.79354   2.90131
C     0.55867  -3.07941   2.52306
C     0.08806  -4.17414   3.22015
C    -0.77068  -3.99602   4.29371
C    -1.15960  -2.72064   4.66473
C    -0.69201  -1.61865   3.96950
H    -0.16266   3.36807  -2.98353
H     1.24138   5.10618  -1.92097
H     2.31698   4.67833   0.24340
H     2.02100   2.54763   1.41024
H    -0.57133  -0.71151  -3.20754
H     0.99114   0.06793  -2.90288
H    -0.23824   0.90561  -3.87741
H    -2.58380   0.18904  -2.09874
H    -2.21741   1.78402  -2.80131
H    -2.41287   1.60433  -1.04322
H    -1.31336   1.42461   2.19502
H    -1.79619   3.31506   3.72294
H    -0.14123   3.95396   5.43936
H     1.97502   2.70770   5.63603
H     2.44824   0.82085   4.13075
H     2.82376   0.04617  -0.06788
H     5.26483  -0.36273  -0.13082
H     6.38925  -1.38096   1.81549
H     5.08080  -2.00416   3.80913
H     2.65017  -1.61295   3.86745
H     1.21355  -3.21415   1.67305
H     0.38265  -5.16826   2.92009
H    -1.14333  -4.85262   4.83544
H    -1.83567  -2.57981   5.49548
H    -1.00574  -0.62539   4.25871
O    -0.72738  -1.46602  -0.21027
