50

C     0.69313   0.12811  -1.80368
C    -0.06642   1.94058   0.10161
C    -1.88773   0.03365  -0.46846
C     2.66655   1.85363   1.84954
C     1.48237   2.21728   2.49952
H     0.70902   1.48117   2.65980
C     1.32192   3.49111   2.98990
H     0.41764   3.77628   3.50284
C     2.32565   4.45141   2.83093
C     3.51344   4.09108   2.19478
H     4.31186   4.80425   2.06318
C     3.68298   2.80219   1.73311
H     4.60956   2.53421   1.24495
C     2.90660   0.50580   1.37548
H     3.92804   0.14234   1.54457
C     2.50559  -1.61677   0.50885
H     3.42336  -1.87735   1.05293
H     2.69540  -1.70979  -0.56915
C     3.02436   6.69458   3.20615
H     3.95283   6.43978   3.72731
H     2.58500   7.57772   3.66693
H     3.24146   6.90565   2.15453
C    -1.79828  -3.08236  -0.97563
C    -1.81821  -2.31495  -2.13973
H    -0.92794  -1.78610  -2.44609
C    -2.94747  -2.25418  -2.93129
H    -2.92088  -1.65727  -3.82839
C    -4.09791  -2.94998  -2.56400
C    -4.07659  -3.73618  -1.40592
H    -4.97107  -4.27623  -1.13918
C    -2.94189  -3.81413  -0.63650
H    -2.94203  -4.41975   0.25807
C    -0.62088  -3.18059  -0.13752
H    -0.46914  -4.15862   0.33281
C     1.36826  -2.56008   0.90204
H     1.67323  -3.60795   0.78881
H     1.11167  -2.37778   1.95490
C    -5.36287  -2.14741  -4.40919
H    -5.19367  -1.09188  -4.17764
H    -6.38173  -2.28086  -4.76881
H    -4.66072  -2.46944  -5.18458
N     2.07458  -0.26508   0.79615
N     0.21478  -2.24657   0.08700
O     1.11740   0.18233  -2.87525
O    -0.15325   3.08548   0.11185
O    -3.02433   0.08661  -0.60161
O     2.06087   5.67669   3.33976
O    -5.25938  -2.94971  -3.25492
Re    0.00000   0.00000   0.00000
O    -0.52234  -0.30099   1.53593
