63

Pt    0.00000   0.00000   0.00000
P    -0.98496   0.78194   1.86391
P     1.20823  -1.17599  -1.50284
C     0.81120  -1.33709   1.30507
C     1.46405  -2.48744   0.84577
C     2.03089  -3.38237   1.74272
H     2.53637  -4.26403   1.37279
C     1.94639  -3.15777   3.10464
H     2.38295  -3.86084   3.79848
C     1.30191  -2.02802   3.57403
H     1.23625  -1.84768   4.63836
C     0.74550  -1.11674   2.68698
C     1.52674  -2.76987  -0.63473
H     0.72677  -3.46815  -0.91029
H     2.48756  -3.20893  -0.92019
C     0.09234   0.13698   3.21461
H     0.85714   0.88714   3.44468
H    -0.47981  -0.05255   4.12754
C     0.85444  -1.58770  -3.23458
C     1.16296  -2.81446  -3.81294
H     1.61117  -3.60179  -3.22330
C     0.88975  -3.02987  -5.15219
H     1.13030  -3.98260  -5.60214
C     0.30869  -2.03021  -5.91535
H     0.09751  -2.20615  -6.96004
C    -0.00830  -0.81065  -5.33853
H    -0.47034  -0.03501  -5.93093
C     0.26201  -0.58721  -4.00137
H     0.00098   0.35192  -3.53126
C     2.85407  -0.41315  -1.59700
C     3.08209   0.72199  -0.82674
H     2.26469   1.12076  -0.22433
C     4.32105   1.33497  -0.84488
H     4.49836   2.21793  -0.24864
C     5.33413   0.81807  -1.63624
H     6.30214   1.29698  -1.65469
C     5.10728  -0.30783  -2.41227
H     5.89777  -0.70267  -3.03403
C     3.86962  -0.92433  -2.39673
H     3.68627  -1.79547  -3.01117
C    -1.31263   2.51632   2.27298
C    -2.59816   3.04432   2.31353
H    -3.45139   2.39910   2.15936
C    -2.78029   4.39666   2.54219
H    -3.78023   4.80381   2.57661
C    -1.68724   5.22928   2.71480
H    -1.83473   6.28480   2.88940
C    -0.40302   4.71230   2.64340
H     0.45012   5.36539   2.75515
C    -0.21555   3.36318   2.41474
H     0.78479   2.95790   2.32692
C    -2.54381  -0.10084   2.12708
C    -3.26427  -0.01883   3.31450
H    -2.91483   0.61986   4.11517
C    -4.42940  -0.74833   3.46164
H    -4.99241  -0.68447   4.38162
C    -4.87683  -1.56078   2.43081
H    -5.78826  -2.12764   2.55212
C    -4.16079  -1.64587   1.24791
H    -4.51290  -2.27846   0.44662
C    -2.99550  -0.91663   1.09544
H    -2.41972  -0.96216   0.17125
O    -0.65168   1.13628  -1.00333
