34

Zn    0.00000   0.00000   0.00000
Cl   -1.39648   1.61341  -0.50455
N     0.10792  -1.58185  -1.39923
N     2.06341  -2.62945  -4.29150
N    -1.05331  -1.56937   1.00709
C    -0.17866  -2.75034  -0.87328
C     0.28507  -3.96176  -1.44809
C     1.03596  -3.92723  -2.58477
C     3.13617  -1.40385  -6.00275
C     3.46031  -0.20994  -6.57192
C     3.02903   1.00854  -6.00018
C     2.27721   1.01495  -4.86543
C     1.14802  -0.25974  -3.08083
C     1.33989  -2.67881  -3.18340
C     0.84519  -1.50215  -2.52669
C     2.35666  -1.44505  -4.81939
C     1.91570  -0.20417  -4.23822
C    -0.99536  -2.73145   0.35140
C    -1.69738  -3.84695   0.80663
C    -2.44959  -3.74401   1.96443
C    -2.48487  -2.53396   2.63839
C    -1.76971  -1.46881   2.11258
H     0.06971  -4.90183  -0.96680
H     1.42063  -4.82349  -3.04604
H     3.45724  -2.34375  -6.42283
H     4.05572  -0.18133  -7.47244
H     3.30537   1.93699  -6.47675
H     1.94280   1.93899  -4.41797
H     0.78429   0.64181  -2.60238
H    -1.67701  -4.77367   0.25685
H    -3.00256  -4.59581   2.33094
H    -3.05636  -2.41280   3.54413
H    -1.77151  -0.49858   2.58939
O     1.57095  -0.01951   0.50422
