44

Mo    0.00000   0.00000   0.00000
Cl   -0.94689  -2.08811   0.38079
O     1.37856  -0.19409   0.87169
O    -1.05989   0.92622   0.84673
N    -1.56613  -0.07002  -1.72455
N    -1.34311  -0.06483  -3.05707
N     0.97110  -1.29077  -1.71102
N     0.72208  -1.21384  -3.03676
C    -0.00634  -0.10697  -3.59144
H     0.51420   0.83267  -3.32934
H    -0.06712  -0.23024  -4.67367
C    -3.53768  -0.05333  -0.23031
H    -3.28344  -0.99949   0.25057
H    -4.61538   0.01689  -0.33489
H    -3.16837   0.74416   0.41514
C    -2.88446   0.02436  -1.55547
C    -3.52112   0.11647  -2.81460
C    -2.49866   0.04311  -3.74797
C    -2.55649   0.10604  -5.23010
H    -2.14097  -0.79537  -5.68132
H    -2.00624   0.96922  -5.60338
H    -3.59136   0.20115  -5.54500
C    -4.94164   0.25536  -3.10674
H    -5.30360  -0.33802  -3.93748
C    -5.76976   1.05570  -2.45226
H    -5.43518   1.69044  -1.64999
H    -6.81213   1.11894  -2.71276
C     2.19539  -2.81120  -0.19179
H     2.29353  -1.93939   0.45671
H     3.15886  -3.30425  -0.30101
H     1.49260  -3.50049   0.27853
C     1.69004  -2.39376  -1.51852
C     1.91970  -3.03869  -2.75811
C     1.28649  -2.24527  -3.70354
C     1.17184  -2.41423  -5.17427
H     1.62191  -1.57288  -5.70153
H     0.12859  -2.50150  -5.47776
H     1.68508  -3.32254  -5.47496
C     2.66896  -4.25408  -3.02648
H     3.14153  -4.29207  -4.00030
C     2.79507  -5.28045  -2.19689
H     2.31523  -5.30632  -1.23542
H     3.37459  -6.14607  -2.46781
O     0.57988   1.24673  -0.91208
