53

Zn    0.00000   0.00000   0.00000
Cl   -0.68084  -1.29098   1.67255
O    -2.02991   0.44696  -0.65271
N    -4.10623  -1.07750  -0.87499
N     0.27782   2.07863   0.63379
C    -2.17366   2.33256   0.79303
C    -4.27165  -0.81749   0.55519
H    -5.31093  -0.98489   0.87963
H    -3.63257  -1.52218   1.09872
C    -2.67701   1.11002   0.35466
C    -4.48196   1.29039   1.92032
H    -5.37063   0.87397   2.37269
C    -3.82735   0.57054   0.93640
C    -2.85188   3.02508   1.78696
H    -2.46125   3.97479   2.12383
C    -4.12403  -2.50974  -1.17008
H    -4.83797  -3.02236  -0.50785
H    -4.47021  -2.64942  -2.19599
C    -4.01441   2.52596   2.35191
C    -5.04772  -0.30369  -1.68100
H    -6.02040  -0.81427  -1.75327
H    -5.21262   0.65286  -1.17638
C    -0.89673   2.85825   0.20047
H    -0.94884   2.79185  -0.88991
H    -0.76262   3.91173   0.48511
C    -4.74959   3.27928   3.41838
H    -4.79315   2.69161   4.33422
H    -5.77266   3.48117   3.10425
H    -4.26015   4.22479   3.63572
C     0.42661   2.18038   2.08552
H     1.30751   1.62456   2.40177
H    -0.44499   1.75020   2.57449
H     0.53428   3.22663   2.39531
C    -4.50096  -0.02455  -3.08102
H    -4.32758  -0.96262  -3.61017
H    -3.54067   0.48655  -2.99179
C     1.46847   2.62636  -0.01643
H     1.59469   3.68802   0.22670
H     1.38314   2.51101  -1.09494
H     2.35024   2.07984   0.31320
C    -2.73816  -3.14360  -1.03142
H    -2.26866  -2.81525  -0.10287
H    -2.86208  -4.22676  -0.97208
C    -1.82595  -2.80924  -2.20566
H    -2.24303  -3.18816  -3.13713
H    -0.84873  -3.26193  -2.05989
H    -1.68343  -1.73568  -2.30563
C    -5.46636   0.83770  -3.88423
H    -6.42763   0.33935  -3.99194
H    -5.06722   1.03025  -4.87662
H    -5.62985   1.79214  -3.38824
H    -2.66914  -0.30152  -0.91548
O     0.86136  -0.25915  -1.38326
