22

W     0.00000   0.00000   0.00000
Cl   -1.84554  -0.71642   1.19607
Cl    1.17273   0.17503   1.98822
Cl   -0.97875  -0.87865  -1.90244
O    -0.39437   1.60124  -0.19110
O     0.52372  -2.22559   0.26223
C     0.52114  -2.92861   1.51999
H    -0.01900  -3.87457   1.37908
H    -0.02797  -2.30700   2.23403
C     1.94399  -3.19079   2.00347
H     1.90252  -3.70728   2.96178
H     2.44598  -2.23217   2.14873
C     2.69623  -4.02085   0.96661
H     3.73602  -4.14659   1.26693
H     2.24481  -5.01283   0.88835
C     2.61808  -3.30967  -0.38175
H     3.14540  -2.35493  -0.33065
H     3.07122  -3.91236  -1.16800
C     1.15935  -3.04336  -0.73938
H     1.07920  -2.50704  -1.68999
H     0.60145  -3.98669  -0.81195
O     1.45073   0.01135  -0.78596
