47

Ti    0.00000   0.00000   0.00000
Cl   -1.79357   0.78367  -0.93672
O    -0.63375  -1.09295   1.15709
C     1.06493   0.63782   1.91172
C     0.32754   1.74550   1.40574
C     0.88611   2.10065   0.14454
C     1.94475   1.19143  -0.14151
C     2.04261   0.27312   0.94282
C     0.56767  -0.27310   2.96641
C    -0.37140  -1.20026   2.45827
C    -0.96829  -2.15869   3.29247
C    -0.59090  -2.14792   4.63083
H    -1.02107  -2.86335   5.31206
C     0.33003  -1.24187   5.13103
H     0.59250  -1.27401   6.17755
C     0.91656  -0.29797   4.30283
H     1.63570   0.41009   4.68668
C    -1.96910  -3.13959   2.70076
C    -3.14485  -2.35323   2.10002
H    -3.63184  -1.75721   2.86993
H    -3.87555  -3.04167   1.68105
H    -2.80908  -1.68600   1.30506
C    -1.27073  -3.95695   1.60245
H    -1.96589  -4.67763   1.17738
H    -0.42192  -4.49740   2.01796
H    -0.91211  -3.31245   0.79863
C    -2.52279  -4.11034   3.74733
H    -3.04709  -3.57779   4.53740
H    -1.72832  -4.70971   4.18580
H    -3.22981  -4.78637   3.27156
C    -0.79262   2.44847   2.11424
H    -1.66001   2.54965   1.45812
H    -0.48144   3.44788   2.42468
H    -1.08667   1.88587   3.00062
C     0.51105   3.30922  -0.66082
H     1.06658   4.18111  -0.30686
H    -0.55378   3.52021  -0.56546
H     0.74186   3.16400  -1.71566
C     2.88073   1.26835  -1.31167
H     3.37754   0.31264  -1.46889
H     3.64372   2.02907  -1.13184
H     2.34653   1.53183  -2.22498
C     3.03305  -0.84531   1.08479
H     4.04084  -0.44982   1.22711
H     3.03459  -1.47509   0.19238
H     2.77836  -1.46141   1.94762
O     0.49893  -1.00702  -1.20809
