39

Rh    0.00000   0.00000   0.00000
Cl    1.64795  -0.06516  -1.68444
O     0.00006  -1.74420  -0.00040
N    -1.42426   0.56096  -1.39461
N    -1.63206   1.79006  -1.60423
C    -2.16353  -0.36646  -2.11954
C    -2.02494  -1.74131  -1.92705
H    -1.31044  -2.11443  -1.18998
C    -2.78000  -2.63231  -2.66088
H    -2.66179  -3.69224  -2.49796
C    -3.68619  -2.16845  -3.60283
H    -4.27549  -2.86682  -4.17720
C    -3.83060  -0.80295  -3.80485
H    -4.53285  -0.43616  -4.53808
C    -3.08281   0.09471  -3.07548
H    -3.18376   1.15911  -3.22103
C    -0.00028   1.90912   0.00027
C    -0.86955   2.62090  -0.85507
C    -0.86786   4.01629  -0.85511
H    -1.52992   4.56215  -1.50900
C    -0.00020   4.68465   0.00011
H    -0.00017   5.76427   0.00007
N     1.42367   0.56102   1.39512
N     1.63163   1.79012   1.60463
C     2.16312  -0.36642   2.11980
C     2.02439  -1.74128   1.92740
H     1.30976  -2.11456   1.19055
C     2.77957  -2.63226   2.66112
H     2.66121  -3.69219   2.49831
C     3.68602  -2.16843   3.60283
H     4.27534  -2.86683   4.17716
C     3.83065  -0.80294   3.80468
H     4.53313  -0.43615   4.53770
C     3.08276   0.09473   3.07541
H     3.18388   1.15912   3.22086
C     0.86907   2.62094   0.85551
C     0.86745   4.01633   0.85539
H     1.52956   4.56224   1.50917
O    -1.15337  -0.04494   1.17908
