66

Rh    0.00000   0.00000   0.00000
P     0.16029   1.53608   1.66510
P    -0.83463  -1.62711  -1.34881
O    -1.99414  -2.33244  -0.44292
O    -0.91094   1.02042   2.78221
C    -1.73889  -0.01211   2.37207
C    -2.80279  -0.41663   3.16233
H    -2.99570   0.08497   4.09765
C    -3.59887  -1.46718   2.73337
H    -4.42723  -1.78836   3.34527
C    -3.34970  -2.11202   1.53206
H    -3.96801  -2.93057   1.19846
C    -2.28207  -1.69528   0.75297
C    -1.46912  -0.64258   1.16121
C     1.18872  -1.30963   0.98740
C     0.89085  -2.18399   2.02229
H    -0.10481  -2.25428   2.43475
C     1.88322  -2.99639   2.55241
H     1.63383  -3.67162   3.35812
C     3.17477  -2.94849   2.06209
H     3.94121  -3.58378   2.48008
C     3.47783  -2.07820   1.02926
H     4.48166  -2.02683   0.63287
C     2.49130  -1.26466   0.49616
H     2.76400  -0.59362  -0.31277
C    -0.01315  -3.14200  -2.02636
H    -0.81065  -3.72030  -2.50755
C     0.59187  -3.99578  -0.91814
H     0.89470  -4.96168  -1.31989
H    -0.13244  -4.16712  -0.12355
H     1.46789  -3.51587  -0.48972
C     1.03882  -2.72589  -3.04699
H     1.78800  -2.09150  -2.57578
H     0.59649  -2.17221  -3.87293
H     1.54157  -3.60248  -3.45192
C    -1.83965  -1.00091  -2.79463
H    -1.13735  -0.52100  -3.48499
C    -2.61682  -2.09722  -3.51292
H    -3.15103  -2.71745  -2.79424
H    -1.96555  -2.72804  -4.11292
H    -3.34871  -1.64477  -4.18070
C    -2.78971   0.06141  -2.24735
H    -3.33511   0.54543  -3.05574
H    -2.23191   0.83328  -1.71169
H    -3.51089  -0.38194  -1.56002
C    -0.55017   3.20959   1.23180
H     0.11355   3.65262   0.48140
C    -1.91327   2.95641   0.59217
H    -2.61352   2.55165   1.32326
H    -1.82368   2.23991  -0.22880
H    -2.32889   3.87800   0.18831
C    -0.68505   4.14056   2.43031
H    -1.30858   4.99172   2.16002
H     0.27898   4.52450   2.75492
H    -1.16067   3.62211   3.26203
C     1.58473   1.94751   2.77277
H     1.18624   2.64130   3.52241
C     2.10717   0.71134   3.49513
H     2.61771   0.04382   2.80572
H     1.29113   0.16511   3.96526
H     2.81355   1.00677   4.26958
C     2.67899   2.61598   1.94972
H     3.53108   2.86235   2.58089
H     2.32330   3.53156   1.48113
H     3.02076   1.94388   1.16405
O     0.64871   0.93778  -1.19258
