36

Au    0.00000   0.00000   0.00000
C     1.47088   0.88496  -1.01132
N     1.77171   0.56494  -2.28969
N     2.36413   1.80683  -0.60514
N     3.47353   1.21179  -3.87622
O     2.52184  -1.97339  -1.75844
C     2.87578   1.25966  -2.70124
C     3.25837   2.07309  -1.61419
C     4.36795   2.89101  -1.75604
H     4.72370   3.52968  -0.96210
C     5.00519   2.83657  -2.98628
H     5.87732   3.44318  -3.16967
C     4.52827   2.00124  -3.99637
H     5.02187   1.96280  -4.95662
C     1.14247  -0.49277  -3.02756
H     1.50799  -0.44284  -4.05772
H     0.05690  -0.37424  -3.01129
C     1.53443  -1.85414  -2.43138
C     0.57897  -2.96022  -2.75185
H     1.05727  -3.92562  -2.61128
H     0.18848  -2.86891  -3.76162
H    -0.25544  -2.88777  -2.05279
C     2.36651   2.45574   0.68142
H     3.39003   2.44961   1.06799
H     1.73412   1.86854   1.34911
C     1.85432   3.89692   0.58853
H     2.00527   4.37342   1.55835
H     2.45418   4.43753  -0.14776
C     0.37779   3.99490   0.20204
H     0.16308   5.03335  -0.05943
H     0.19065   3.38688  -0.68652
C    -0.56456   3.56319   1.31879
H    -0.46714   2.50150   1.53366
H    -1.59541   3.74532   1.02707
H    -0.36153   4.12412   2.22827
O    -1.21952  -0.80313   0.76828
