31

Zn    0.00000   0.00000   0.00000
Cl   -1.98006   0.11121  -1.03978
O    -0.48939   4.32759  -3.33958
N    -2.00999   2.74745  -2.81008
H    -2.74472   3.43379  -2.74590
H    -2.18659   1.81807  -2.44013
N     1.04590   2.87997  -0.98976
N     0.63092   1.98946  -0.10908
N    -0.40407   0.60399   1.98918
C    -0.77492   3.16699  -3.11463
C     0.27868   2.05879  -3.14872
H     0.60341   1.91622  -4.17959
H    -0.13707   1.12273  -2.77761
C     1.48331   2.48539  -2.30383
H     2.18899   1.65639  -2.20505
H     1.97082   3.34722  -2.76295
C     0.91412   4.12620  -0.51471
H     1.17139   4.98421  -1.10195
C     0.39409   4.03241   0.75798
H     0.16474   4.84018   1.42069
C     0.22644   2.65564   0.97565
C    -0.28475   1.93041   2.12307
C    -0.63530   2.57274   3.31100
H    -0.52891   3.64181   3.39507
C    -1.11549   1.82033   4.36628
H    -1.39555   2.29596   5.29407
C    -1.23028   0.44600   4.21310
H    -1.59945  -0.17730   5.01107
C    -0.86125  -0.11568   3.00264
H    -0.93354  -1.18130   2.83426
O     1.25246  -1.02004  -0.33670
