53

Zn    0.00000   0.00000   0.00000
Cl   -0.50148   1.89925   1.06221
N    -1.00752   0.33897  -1.87128
N     1.55083   0.87326  -1.09021
N     1.56009   2.85558  -2.03575
N     1.71188   3.35514  -4.99272
C    -2.12909  -0.15274  -2.36755
H    -2.64312  -0.87265  -1.74629
C    -2.62365   0.22133  -3.60721
H    -3.54922  -0.19410  -3.97149
C    -1.88829   1.11914  -4.36636
H    -2.22425   1.41124  -5.35021
C    -0.70583   1.62872  -3.85784
H    -0.07512   2.27670  -4.44930
C    -0.30510   1.23095  -2.58179
C     0.91654   1.67016  -1.93650
C     1.15342   4.04233  -2.75150
H     1.29975   4.90738  -2.10035
H     0.09273   3.95222  -2.99268
C     1.97077   4.21044  -4.01212
C     2.95580   5.18510  -4.11435
H     3.13660   5.87169  -3.30217
C     3.69889   5.25336  -5.28205
H     4.47379   5.99741  -5.39158
C     3.43242   4.35266  -6.30089
H     3.99016   4.37058  -7.22350
C     2.42158   3.42461  -6.10450
H     2.16262   2.70144  -6.86629
C     2.66342   2.78989  -1.22436
C     3.60507   3.90754  -1.10746
C     4.84660   3.84074  -1.73243
H     5.11575   2.95132  -2.28280
C     5.72551   4.90477  -1.64200
H     6.68843   4.84745  -2.12725
C     5.37289   6.04049  -0.93116
H     6.06018   6.87042  -0.86298
C     4.14186   6.10749  -0.29909
H     3.87026   6.98660   0.26613
C     3.25796   5.04641  -0.38509
H     2.30743   5.08279   0.12802
C     2.64740   1.53739  -0.63614
C     3.55398   0.93599   0.32983
C     3.52499  -0.44429   0.53406
H     2.85085  -1.05670  -0.04597
C     4.35741  -1.02900   1.46885
H     4.31916  -2.09691   1.62227
C     5.23240  -0.25006   2.20826
H     5.88084  -0.70795   2.94051
C     5.26809   1.12046   2.00996
H     5.94320   1.73348   2.58921
C     4.43535   1.71350   1.08013
H     4.45497   2.78422   0.94844
O    -0.05817  -1.60258   0.38840
