41

Au    0.00000   0.00000   0.00000
C    -1.17982  -1.54726  -0.37800
C    -1.35701  -2.28470  -1.54343
N    -2.05620  -2.13099   0.47087
N    -2.71642  -3.13493  -0.05810
N    -2.29210  -3.22833  -1.28819
C    -2.84646  -4.20518  -2.17870
H    -2.07537  -4.52652  -2.87959
H    -3.67501  -3.76669  -2.73891
H    -3.21459  -5.04206  -1.58916
S    -0.42227  -2.10118  -3.08485
O    -0.56071  -3.38417  -3.78214
C    -1.70050  -1.01222  -3.79147
C    -2.54109  -1.49927  -4.77389
H    -2.42753  -2.52125  -5.10481
C    -3.49543  -0.66340  -5.32403
H    -4.15482  -1.03787  -6.09343
C    -3.60787   0.65824  -4.90429
C    -2.74348   1.12755  -3.91957
H    -2.81452   2.15320  -3.59001
C    -1.78528   0.30019  -3.36283
H    -1.11228   0.66452  -2.59958
C    -4.65107   1.55295  -5.49741
H    -5.61359   1.37136  -5.01806
H    -4.76661   1.35850  -6.56135
H    -4.39333   2.59888  -5.35408
C    -2.25486  -1.78912   1.85642
H    -3.09057  -2.39572   2.21480
H    -2.50930  -0.72859   1.92201
C    -0.99573  -2.07251   2.64035
C    -0.27211  -1.04254   3.22401
H    -0.62312  -0.02451   3.15076
C     0.90343  -1.31794   3.90122
H     1.46364  -0.51008   4.34554
C     1.36395  -2.61994   3.99292
H     2.28491  -2.83266   4.51447
C     0.64324  -3.65106   3.41362
H     0.99832  -4.66839   3.48445
C    -0.53300  -3.37841   2.73909
H    -1.09630  -4.18146   2.28357
O     0.95467   1.30327   0.33553
