67

Hg    0.00000   0.00000   0.00000
I     2.03027   1.42033  -0.80796
O     0.48645  -2.23907  -1.72834
O    -1.04566  -0.01452  -2.61613
O    -1.58540   2.21176  -0.88472
O    -2.19378   4.08156   2.13215
O     0.42397   4.08377   3.12235
O     1.74170   1.80888   4.66724
O     1.29860  -0.10219   2.51472
O     1.53317  -2.32843   0.68228
C    -0.11831  -2.16975  -3.00234
H    -1.14669  -2.55137  -2.95080
H     0.46160  -2.75544  -3.72770
C    -0.16100  -0.71832  -3.45998
H     0.84506  -0.27797  -3.42481
H    -0.52660  -0.68413  -4.49629
C    -1.33806   1.28918  -3.06976
H    -1.81470   1.23812  -4.05946
H    -0.41902   1.88624  -3.14566
C    -2.28839   1.94555  -2.07842
H    -2.66600   2.88517  -2.50583
H    -3.13673   1.27506  -1.88082
C    -2.34328   2.94717   0.05194
H    -3.19847   2.35941   0.41337
H    -2.72483   3.86659  -0.41522
C    -1.43493   3.31717   1.22381
H    -1.07113   2.39850   1.70818
H    -0.57274   3.87381   0.84501
C    -1.62102   5.19850   2.69028
C    -2.43101   6.31903   2.80139
H    -3.43999   6.24764   2.42674
C    -1.96232   7.48436   3.38079
H    -2.60828   8.34459   3.46115
C    -0.66063   7.53776   3.83794
H    -0.27165   8.44378   4.27682
C     0.15824   6.42417   3.74687
H     1.16710   6.48714   4.12169
C    -0.30818   5.23779   3.19479
C     1.70966   4.06384   3.70844
H     1.65613   4.37862   4.75835
H     2.38521   4.73244   3.15810
C     2.26302   2.63584   3.64959
H     2.07717   2.21656   2.65625
H     3.34077   2.67548   3.82759
C     0.49120   1.21355   4.38572
H    -0.09754   1.84276   3.71370
H    -0.03732   1.11953   5.33913
C     0.65942  -0.18848   3.78538
H     1.26782  -0.79158   4.46574
H    -0.32511  -0.65783   3.67467
C     2.44720  -0.90013   2.35334
H     3.05202  -0.89588   3.26777
H     3.02610  -0.44910   1.54315
C     2.10557  -2.34210   1.97467
H     3.02412  -2.94329   1.97538
H     1.39298  -2.75769   2.70061
C     1.13177  -3.52706   0.14935
C     1.24909  -4.74586   0.79562
H     1.67657  -4.80403   1.78308
C     0.81452  -5.91320   0.18554
H     0.91300  -6.85164   0.70803
C     0.26031  -5.86691  -1.07415
H    -0.08330  -6.76867  -1.55597
C     0.13699  -4.65368  -1.73556
H    -0.30221  -4.64329  -2.71929
C     0.56673  -3.47915  -1.14130
O    -1.34284  -0.74506   0.60345
