43

Fe    0.00000   0.00000   0.00000
N    -0.84242  -1.38883   0.91033
C    -0.47589  -2.58413   0.51323
H    -0.88146  -3.48865   0.94789
C    -1.77221  -1.27528   2.01372
H    -2.53916  -2.05754   1.91411
C    -1.02811  -1.48666   3.34209
H    -0.22998  -0.74743   3.42349
H    -0.56760  -2.47752   3.34383
C    -1.97689  -1.33637   4.52484
H    -2.75272  -2.10462   4.47573
H    -1.41999  -1.47998   5.45230
C    -2.62472   0.04396   4.51002
H    -3.30594   0.14642   5.35632
H    -1.85075   0.80817   4.60659
C    -3.38458   0.24914   3.20431
H    -3.83638   1.24219   3.18399
H    -4.19055  -0.48573   3.13380
C    -2.45721   0.09310   2.00370
H    -3.03483   0.20264   1.08450
H    -1.69326   0.87861   2.02955
I     1.59920   0.93729   1.58789
N     0.84258  -1.38884  -0.91067
C     0.47548  -2.58412  -0.51405
H     0.88062  -3.48868  -0.94905
C     1.77265  -1.27531  -2.01386
H     2.53970  -2.05743  -1.91391
C     1.02894  -1.48700  -3.34240
H     0.23064  -0.74798  -3.42409
H     0.56867  -2.47797  -3.34421
C     1.97800  -1.33665  -4.52491
H     2.75404  -2.10467  -4.47547
H     1.42143  -1.48054  -5.45252
C     2.62544   0.04384  -4.51010
H     3.30677   0.14642  -5.35628
H     1.85127   0.80783  -4.60685
C     3.38500   0.24934  -3.20426
H     3.83651   1.24252  -3.18393
H     4.19115  -0.48530  -3.13354
C     2.45746   0.09317  -2.00382
H     3.03494   0.20285  -1.08454
H     1.69342   0.87858  -2.02982
O    -1.08092   0.63350  -1.07368
