20

C     2.82400  -1.07812  -0.35551
C     4.98446   0.06126  -0.03303
H     5.41596   0.66752   0.75771
H     4.94118   0.66050  -0.94631
H     5.62599  -0.80727  -0.19105
C     2.35212  -2.37682  -2.35910
H     2.91277  -3.11015  -2.93273
H     1.86465  -1.67074  -3.03691
H     1.58371  -2.88236  -1.77502
Cl    1.30675   1.22266   1.58897
Cl   -0.81685  -1.45332  -1.59988
Cl   -0.74890  -1.34309   1.69504
N     3.66350  -0.35037   0.38511
H     3.21493   0.17758   1.13759
N     3.25922  -1.68943  -1.46239
H     4.14003  -1.39215  -1.85150
O    -1.21379   1.12006  -0.07934
O     1.63106  -1.26459   0.05837
W     0.00000   0.00000   0.00000
O     0.95426   0.69150  -1.15487
