29

Cl   -0.00031   2.31364   0.00028
C     2.00540   0.00002   2.23232
C     2.93870   0.00001   3.27737
C     3.40139   1.21404   3.79654
C     4.31962   1.20349   4.82749
C     4.77847   0.00001   5.34304
H     3.03537   2.14245   3.38551
H     4.67997   2.13700   5.23230
H     5.49619   0.00001   6.14943
N     1.23730   0.00002   1.36962
Pt    0.00000   0.00000   0.00000
N    -1.23772   0.00005  -1.36922
C     3.40139  -1.21401   3.79654
C     4.31962  -1.20346   4.82749
C    -2.00589   0.00002  -2.23185
H     3.03537  -2.14242   3.38551
H     4.67997  -2.13697   5.23230
C    -2.93924   0.00002  -3.27685
C    -3.40188  -1.21401  -3.79606
C    -3.40189   1.21404  -3.79606
C    -4.32009  -1.20346  -4.82704
H    -3.03584  -2.14242  -3.38505
C    -4.32009   1.20349  -4.82704
H    -3.03584   2.14245  -3.38506
C    -4.77892   0.00001  -5.34260
H    -4.68040  -2.13697  -5.23187
H    -4.68040   2.13699  -5.23187
H    -5.49662   0.00001  -6.14900
O    -0.00021  -1.65000   0.00021
