30

Hg    0.00000   0.00000   0.00000
Cl    0.75310   1.77716  -1.21520
N     2.03087  -1.25318   0.78366
N     0.48460  -2.06564  -1.28584
C     2.13953  -2.51014   0.33951
C     2.90718  -3.45447   1.02024
H     2.97158  -4.47132   0.66921
C     3.57088  -3.07965   2.17680
H     4.16037  -3.80001   2.72415
C     3.46560  -1.77067   2.61388
H     3.97186  -1.43307   3.50370
C     2.67795  -0.89529   1.87941
H     2.56565   0.13824   2.18059
C     1.40418  -2.85766  -0.89559
C     1.82314  -4.09672  -1.62844
H     1.41543  -4.09305  -2.63686
H     1.45879  -4.98517  -1.11429
H     2.90861  -4.15001  -1.68080
C    -0.34049  -2.29579  -2.38823
C    -1.10309  -3.45763  -2.50430
H    -1.04881  -4.21029  -1.73190
C    -1.97068  -3.60855  -3.57052
H    -2.57017  -4.50357  -3.64492
C    -2.07044  -2.62233  -4.53703
H    -2.74430  -2.74828  -5.37067
C    -1.31394  -1.46581  -4.42252
H    -1.39494  -0.68994  -5.16855
C    -0.46294  -1.29096  -3.34919
H     0.12763  -0.39069  -3.24930
O    -0.91357  -0.63406   1.21896
