36

Hg    0.00000   0.00000   0.00000
Cl   -2.29026  -0.01025  -0.11604
N     0.03279   2.48157   0.38888
N     0.39065   0.64958   2.34664
C    -0.11328   2.85777   1.66399
C    -0.57290   4.13106   1.99592
H    -0.70452   4.42147   3.02533
C    -0.88156   5.02286   0.98155
H    -1.24858   6.01055   1.21781
C    -0.70886   4.62657  -0.33318
H    -0.92831   5.29093  -1.15327
C    -0.24978   3.33932  -0.57595
H    -0.09706   2.98352  -1.58646
C     0.24318   1.86242   2.69814
C     0.42084   2.34297   4.10670
H     0.83991   1.54917   4.72131
H    -0.54187   2.63173   4.52670
H     1.08093   3.20765   4.13451
C     0.73996  -0.37431   3.24862
C     2.08873  -0.71683   3.39191
C     2.41483  -1.77358   4.22839
H     3.45238  -2.04895   4.34551
C     1.43208  -2.47605   4.90219
H     1.70207  -3.29846   5.54698
C     0.10278  -2.12957   4.74300
H    -0.66557  -2.68310   5.26213
C    -0.26631  -1.07761   3.91747
C     3.13835   0.04615   2.64485
H     4.12147  -0.37931   2.82609
H     3.15032   1.09368   2.94749
H     2.93458   0.01502   1.57320
C    -1.70377  -0.69933   3.73070
H    -2.35491  -1.44522   4.17828
H    -1.94365  -0.61413   2.66999
H    -1.91558   0.26459   4.19447
O     1.41616  -0.33368  -0.77824
