30

Hg    0.00000   0.00000   0.00000
Cl    1.28180  -1.75578   0.72353
N    -1.24238  -1.32622  -1.69521
N    -2.48049  -0.23904   0.56061
C    -2.55387  -1.48810  -1.48438
C    -3.33823  -2.28093  -2.32437
H    -4.39416  -2.39051  -2.12960
C    -2.74133  -2.92492  -3.39369
H    -3.32540  -3.54624  -4.05578
C    -1.38095  -2.75490  -3.59614
H    -0.87314  -3.23615  -4.41619
C    -0.67577  -1.94315  -2.71761
H     0.38744  -1.78379  -2.84046
C    -3.16351  -0.80673  -0.35212
H    -4.25700  -0.83042  -0.32007
C    -3.10524   0.49045   1.56604
C    -2.60859   0.43174   2.87908
C    -3.22783   1.20141   3.85180
H    -2.85776   1.15830   4.86551
C    -4.29763   2.02717   3.55015
H    -4.75285   2.62422   4.32537
C    -4.77047   2.09645   2.25031
H    -5.59011   2.75326   2.00194
C    -4.18413   1.32675   1.26629
H    -4.51522   1.41145   0.24186
C    -1.45083  -0.44737   3.22435
H    -1.29660  -0.48041   4.29990
H    -0.53508  -0.05208   2.76415
H    -1.59417  -1.46156   2.85509
O    -0.13940   1.59971  -0.37945
