39

Hg    0.00000   0.00000   0.00000
Cl    1.57764  -1.29951  -1.00045
N    -2.08430  -0.28515  -1.36642
N    -1.75606  -1.28883   1.12573
C    -3.16538  -0.60441  -0.64651
C    -4.44982  -0.29702  -1.09141
H    -5.31463  -0.54095  -0.49635
C    -4.60595   0.35176  -2.30552
H    -5.59197   0.61013  -2.66203
C    -3.48022   0.65817  -3.05004
H    -3.55600   1.15385  -4.00434
C    -2.23813   0.31860  -2.53211
H    -1.32849   0.53431  -3.07723
C    -2.92953  -1.30182   0.63603
C    -4.08837  -1.99983   1.28072
H    -3.73796  -2.62101   2.10226
H    -4.61165  -2.61986   0.55564
H    -4.79075  -1.26810   1.67795
C    -1.42588  -1.92697   2.33839
C    -0.86080  -3.20604   2.29526
C    -0.47821  -3.79968   3.48615
H    -0.04122  -4.78755   3.46114
C    -0.63437  -3.15462   4.70629
C    -1.18719  -1.88323   4.71764
H    -1.30689  -1.36299   5.65715
C    -1.58938  -1.25161   3.55002
C    -0.68104  -3.89909   0.98005
H    -0.18693  -4.85703   1.11643
H    -0.07643  -3.28426   0.31092
H    -1.64202  -4.06772   0.49308
C    -0.18937  -3.81760   5.97409
H    -0.57657  -3.29423   6.84451
H     0.89904  -3.81916   6.03137
H    -0.52546  -4.85233   6.00587
C    -2.17378   0.12801   3.57717
H    -1.70284   0.76042   2.82378
H    -2.03121   0.58201   4.55412
H    -3.24312   0.10168   3.36508
O    -0.45336   1.53713   0.39268
