45

Hg    0.00000   0.00000   0.00000
Cl    1.69577  -1.45580  -0.46782
N     0.55783   0.19923   2.44026
N     0.89090   2.27068   0.62732
C     0.61113  -0.94342   3.23922
C    -0.59303  -1.60833   3.52467
C    -0.55334  -2.77255   4.27310
H    -1.47098  -3.28985   4.50542
C     0.64968  -3.28152   4.72729
H     0.66724  -4.18673   5.31552
C     1.82974  -2.63657   4.41608
H     2.76417  -3.05491   4.75696
C     1.84439  -1.46138   3.67614
C    -1.91308  -1.06556   3.02881
H    -1.74310  -0.08366   2.57054
C    -2.46955  -2.00070   1.95142
H    -3.37985  -1.58352   1.52824
H    -2.68934  -2.98318   2.36308
H    -1.73908  -2.12356   1.14438
C    -2.92021  -0.87995   4.16475
H    -2.49875  -0.25699   4.95110
H    -3.20685  -1.83465   4.59796
H    -3.81664  -0.39659   3.78416
C     3.17616  -0.85421   3.29908
H     3.01585   0.01388   2.65072
C     3.93229  -0.38487   4.54556
H     3.33614   0.32046   5.12268
H     4.86099   0.10244   4.25700
H     4.17408  -1.22679   5.18919
C     4.01042  -1.85438   2.49535
H     4.94746  -1.39254   2.19219
H     3.46858  -2.15053   1.60073
H     4.23809  -2.74352   3.07703
C     1.16682   2.45014   1.92430
C     1.51340   3.70116   2.43572
H     1.73498   3.81083   3.48652
C     1.55562   4.78815   1.58015
H     1.81625   5.76831   1.95094
C     1.25768   4.59185   0.24104
H     1.27825   5.40911  -0.46176
C     0.93182   3.31132  -0.18629
H     0.69496   3.11437  -1.22355
C     1.10522   1.28896   2.80267
H     1.51880   1.42311   3.80589
O    -1.48486   0.58910  -0.41312
