56

Au    0.00000   0.00000   0.00000
C    -1.69092  -0.93097   0.46337
N    -2.60324  -1.26898  -0.48688
C    -3.69006  -1.94850   0.02670
O    -4.63388  -2.36640  -0.58352
C    -3.40515  -2.03012   1.51971
H    -4.19153  -1.52451   2.08611
H    -3.35171  -3.07075   1.84939
N    -2.13265  -1.35508   1.63185
C    -2.43470  -0.96535  -1.87167
C    -1.80013  -1.89907  -2.69043
C    -1.66346  -1.59291  -4.03740
H    -1.18161  -2.29622  -4.69806
C    -2.13503  -0.39686  -4.54249
H    -2.01853  -0.17405  -5.59247
C    -2.75041   0.51763  -3.71002
H    -3.10926   1.44988  -4.11685
C    -2.91129   0.25187  -2.35713
C    -1.27940  -3.20731  -2.14581
H    -1.39566  -3.21648  -1.05642
C    -3.58350   1.25798  -1.45452
H    -3.55840   0.89049  -0.42284
C    -1.40880  -1.22926   2.87793
H    -0.57325  -0.55140   2.66595
C    -0.83781  -2.57674   3.32863
H    -0.22957  -3.00034   2.52677
H    -1.65162  -3.27134   3.55011
C     0.00942  -2.37431   4.58174
H     0.40962  -3.33406   4.91177
H     0.85255  -1.72334   4.34357
C    -0.82307  -1.74528   5.69511
H    -1.62655  -2.42890   5.97951
H    -0.19876  -1.58114   6.57417
C    -1.42303  -0.42015   5.23427
H    -0.62068   0.28587   5.01253
H    -2.03694   0.00766   6.02833
C    -2.27447  -0.62594   3.98375
H    -3.10028  -1.30038   4.22150
H    -2.68933   0.32739   3.64981
C    -2.09592  -4.37089  -2.71350
H    -1.74876  -5.31325  -2.29536
H    -1.99967  -4.41724  -3.79496
H    -3.14848  -4.24620  -2.46711
C     0.21176  -3.36807  -2.44687
H     0.76695  -2.51087  -2.07055
H     0.39007  -3.45116  -3.51507
H     0.59354  -4.26663  -1.96683
C    -5.05114   1.42649  -1.85494
H    -5.56477   0.46810  -1.81208
H    -5.13333   1.81516  -2.86641
H    -5.54768   2.11886  -1.17864
C    -2.83756   2.59336  -1.48434
H    -3.27732   3.28219  -0.76632
H    -2.88881   3.04840  -2.46935
H    -1.79002   2.44601  -1.22765
O     1.40616   0.75922  -0.41083
