59

Cu    0.00000   0.00000   0.00000
P    -1.12093  -0.30129  -1.88616
N     1.90835  -0.56666   0.13911
N     3.95730  -0.66767   1.28840
N     1.97061  -0.15381   2.37861
H     0.98240   0.10929   2.28669
C     2.61144  -0.45700   1.23840
C     2.57814  -0.94512  -1.08696
H     2.94395  -0.04929  -1.60993
H     1.84168  -1.42564  -1.73968
C     3.74054  -1.88986  -0.80358
H     3.35511  -2.79762  -0.33520
H     4.25842  -2.15954  -1.72337
C     4.68909  -1.18503   0.15288
H     5.44935  -1.88325   0.52217
H     5.20618  -0.36421  -0.36606
C     4.73313  -0.40566   2.48127
H     5.71942  -0.04391   2.17046
H     4.87713  -1.33527   3.05192
C     4.03887   0.63251   3.35074
H     3.98699   1.58195   2.81493
H     4.59129   0.77996   4.27771
C     2.62757   0.13174   3.62781
H     2.67045  -0.77491   4.24826
H     2.03963   0.87998   4.16275
C    -0.20622  -0.19101  -3.45497
C     0.14770  -1.30201  -4.21264
H    -0.19382  -2.28519  -3.91935
C     0.92936  -1.14606  -5.34387
H     1.19526  -2.01110  -5.93432
C     1.37015   0.11143  -5.72128
H     1.97808   0.22791  -6.60636
C     1.03450   1.22068  -4.95926
H     1.38301   2.20138  -5.24922
C     0.25867   1.06990  -3.82715
H    -0.00311   1.92600  -3.21836
C    -1.82438  -1.98169  -1.95225
C    -1.24304  -2.94235  -1.13027
H    -0.42323  -2.65095  -0.48462
C    -1.71898  -4.24079  -1.13419
H    -1.26674  -4.98465  -0.49447
C    -2.78311  -4.58303  -1.95283
H    -3.16026  -5.59520  -1.95317
C    -3.37111  -3.62621  -2.76506
H    -4.20524  -3.89407  -3.39723
C    -2.89668  -2.32711  -2.76781
H    -3.35899  -1.57975  -3.39707
C    -2.58203   0.73857  -2.21057
C    -3.03829   1.06704  -3.48340
H    -2.50231   0.72402  -4.35831
C    -4.17470   1.84295  -3.62441
H    -4.52931   2.09850  -4.61288
C    -4.85775   2.29243  -2.50542
H    -5.74387   2.89880  -2.62435
C    -4.40114   1.97263  -1.23691
H    -4.92673   2.33108  -0.36437
C    -3.26406   1.20044  -1.08811
H    -2.88365   0.96004  -0.10347
O    -0.68254   0.57891   1.38618
