64

Nb    0.00000   0.00000   0.00000
Cl   -1.44806  -0.45440   1.80072
O    -1.32778  -0.43917  -1.13969
O     0.93178   0.82530  -1.44572
O     1.04161   0.96654   1.10827
N    -1.16760   2.20689  -0.22080
C    -2.32711  -0.05150  -1.91055
C    -2.97435   1.16523  -1.62159
C    -3.97848   1.60778  -2.46470
H    -4.47890   2.54056  -2.24367
C    -4.36185   0.88118  -3.58520
C    -3.72079  -0.32046  -3.84809
H    -4.01000  -0.89970  -4.71328
C    -2.71168  -0.80278  -3.03170
C    -2.60946   1.93987  -0.38009
H    -3.15975   2.89470  -0.38329
H    -2.92893   1.35805   0.49586
C    -2.00972  -2.09389  -3.32649
H    -1.46329  -2.43700  -2.44715
H    -1.29891  -1.95281  -4.14015
H    -2.72291  -2.85955  -3.62480
C    -5.46565   1.37321  -4.47226
H    -5.49702   2.46026  -4.48775
H    -6.42780   1.01546  -4.10444
H    -5.33880   1.00686  -5.48814
C     0.38130   1.17314  -2.59944
C    -0.48809   2.27633  -2.61966
C    -1.13625   2.60720  -3.79677
H    -1.80783   3.45391  -3.81255
C    -0.95542   1.85794  -4.95212
C    -0.09755   0.76704  -4.91319
H     0.04222   0.17103  -5.80442
C     0.57647   0.40788  -3.75750
C    -0.67243   3.04139  -1.33645
H    -1.35794   3.88703  -1.49623
H     0.30649   3.43196  -1.02749
C     1.48111  -0.78399  -3.66857
H     2.51358  -0.46179  -3.52928
H     1.42177  -1.39145  -4.56800
H     1.21003  -1.39108  -2.79836
C    -1.69511   2.22278  -6.20375
H    -1.50274   1.50137  -6.99296
H    -1.39043   3.20826  -6.55405
H    -2.76594   2.25210  -6.00980
C     1.42279   2.19144   1.40368
C     0.48169   3.23581   1.35394
C     0.90369   4.53040   1.62358
H     0.18176   5.33489   1.59179
C     2.22512   4.81375   1.93727
C     3.14444   3.76962   1.96634
H     4.17868   3.98255   2.19633
C     2.76968   2.46583   1.70276
C    -0.96452   2.92802   1.05414
H    -1.53643   3.86940   1.03956
H    -1.36232   2.28810   1.85309
C     3.73202   1.31804   1.70250
H     4.76058   1.66801   1.68687
H     3.54743   0.68432   0.83062
H     3.58296   0.70342   2.59148
C     2.65986   6.21290   2.25293
H     2.77940   6.33276   3.32979
H     1.92493   6.93640   1.90980
H     3.61704   6.43332   1.78529
O     0.78795  -1.44758   0.07840
