51

Pd    0.00000   0.00000   0.00000
S    -1.66583  -1.25937  -1.00002
O     1.78768  -0.24384  -4.39805
N     0.17976  -0.72782  -2.88828
N     0.89674   0.02317  -1.92699
H     0.97550   1.00468  -2.24272
H     1.86964  -0.32254  -1.88275
N    -1.19672  -2.15135  -4.70619
N    -1.66184  -2.03827  -3.47900
C    -1.01033  -1.35586  -2.57680
C     0.73357  -0.80972  -4.17095
C    -0.08424  -1.60202  -5.07788
C     0.39276  -1.77332  -6.47878
H    -0.32390  -2.36661  -7.03767
H     1.36499  -2.26497  -6.47959
H     0.51892  -0.79823  -6.94772
P    -0.84784   0.08786   2.04399
C    -2.53108  -0.51580   2.35761
C    -3.56770   0.30934   2.77533
H    -3.38824   1.36249   2.94198
C    -4.82883  -0.22590   2.97473
H    -5.63634   0.41358   3.29952
C    -5.05746  -1.57361   2.75356
H    -6.04490  -1.98353   2.90438
C    -4.02392  -2.39689   2.33202
H    -4.20607  -3.44556   2.15240
C    -2.76293  -1.87082   2.13318
H    -1.94675  -2.49527   1.79111
C    -0.88259   1.83825   2.50945
C    -0.54838   2.36222   3.74909
H    -0.22773   1.70961   4.54751
C    -0.60055   3.73348   3.94361
H    -0.33109   4.14771   4.90389
C    -0.98480   4.57262   2.91191
H    -1.01765   5.64017   3.07051
C    -1.30985   4.04993   1.66777
H    -1.59281   4.70994   0.86130
C    -1.25262   2.68586   1.46350
H    -1.47694   2.24869   0.48188
C     0.15506  -0.90661   3.17678
C    -0.14024  -1.02061   4.53192
H    -0.99169  -0.49608   4.94368
C     0.64944  -1.82080   5.33772
H     0.43043  -1.90520   6.39187
C     1.71572  -2.52014   4.79378
H     2.32959  -3.14151   5.42854
C     1.98906  -2.43600   3.43752
H     2.81034  -2.99612   3.01634
C     1.20828  -1.63278   2.62637
H     1.40709  -1.55460   1.55065
O     1.25373   0.90532   0.57539
