54

Rh    0.00000   0.00000   0.00000
N     2.38578  -0.26891  -1.69447
N     2.49131  -1.51949   0.23891
C     0.62275   1.28212   1.59821
H     1.58291   0.95177   1.99140
C     0.65369   1.98333   0.39226
H     1.63657   2.17079  -0.04014
C    -0.38499   2.98985  -0.04688
H    -0.20932   3.21895  -1.10186
H    -0.24212   3.92293   0.51127
C    -1.83153   2.48951   0.12381
H    -2.22376   2.78677   1.09787
H    -2.45993   2.96305  -0.63380
C    -1.94077   0.98721  -0.01386
H    -2.44806   0.64526  -0.91695
C    -1.87981   0.11990   1.05779
H    -2.37244  -0.84849   0.96255
C    -1.63809   0.53451   2.49098
H    -1.45693  -0.36920   3.07966
H    -2.54718   0.99949   2.88905
C    -0.44019   1.48909   2.65706
H    -0.77457   2.52781   2.62474
H     0.00375   1.32649   3.64206
C     1.84277  -0.64191  -0.53207
C     3.65463  -0.78455  -2.17856
H     3.48927  -1.68006  -2.78991
H     4.13018  -0.02450  -2.80107
C     4.53989  -1.13050  -0.99359
H     4.76055  -0.22727  -0.42014
H     5.47899  -1.56973  -1.32918
C     3.76528  -2.11139  -0.13024
H     4.32334  -2.34385   0.77847
H     3.60179  -3.04332  -0.68513
C     1.62021   0.53994  -2.64132
H     0.66351   0.76998  -2.13588
C     2.32370   1.85646  -2.97376
H     2.68379   2.34359  -2.07044
H     1.62181   2.52337  -3.46710
H     3.16512   1.70504  -3.64682
C     1.30062  -0.25027  -3.90881
H     0.80868  -1.18439  -3.64949
H     2.19860  -0.46470  -4.48382
H     0.62505   0.32819  -4.53296
C     1.84515  -2.07572   1.42617
H     0.86848  -1.56052   1.50607
C     2.64579  -1.79567   2.69857
H     2.98170  -0.76136   2.72318
H     3.51430  -2.44606   2.78025
H     2.01593  -1.97304   3.56606
C     1.57333  -3.56894   1.25639
H     1.00755  -3.74085   0.34396
H     0.98348  -3.92636   2.09606
H     2.49707  -4.14194   1.21870
O    -0.50857  -1.31470  -0.85756
