65

C     0.95539  -2.32511  -1.17703
C    -0.26395  -2.74071  -0.53478
C     1.74391  -3.27409  -2.02351
H     2.58742  -2.76449  -2.48312
H     1.10722  -3.68545  -2.80551
H     2.12210  -4.10572  -1.42890
C    -0.74295  -4.15281  -0.64087
H    -1.09828  -4.35193  -1.65151
H    -1.55248  -4.33578   0.06140
H     0.07070  -4.84562  -0.43135
C     2.61749  -0.65019  -1.30368
C     3.68194  -0.97800  -0.45395
C     4.95300  -0.53448  -0.78345
H     5.77870  -0.77526  -0.12991
C     5.17040   0.21558  -1.92469
H     6.16675   0.55367  -2.16753
C     4.10799   0.54442  -2.74459
H     4.27243   1.14410  -3.62774
C     2.81878   0.12457  -2.44878
C     3.43792  -1.74869   0.80845
H     3.03028  -2.73908   0.60367
H     2.72208  -1.20297   1.42530
H     4.36328  -1.86454   1.36660
C     1.66546   0.52249  -3.31046
H     1.04759   1.23829  -2.76429
H     1.03523  -0.32925  -3.56456
H     2.00995   0.99450  -4.22709
C    -1.96002  -2.09054   1.00902
C    -1.74210  -2.12709   2.39630
C    -2.82224  -2.32784   3.24062
H    -2.65755  -2.35857   4.30763
C    -4.09849  -2.49115   2.73333
H    -4.93310  -2.64258   3.40118
C    -4.30019  -2.46006   1.36698
H    -5.29552  -2.59263   0.96771
C    -3.24610  -2.26500   0.48250
C    -0.35911  -1.97134   2.94862
H     0.07868  -1.02063   2.63024
H     0.29103  -2.77027   2.59062
H    -0.37605  -1.99994   4.03483
C    -3.51348  -2.23998  -0.99029
H    -3.32858  -3.21981  -1.43089
H    -2.87802  -1.51342  -1.49279
H    -4.55368  -1.98437  -1.17763
C    -1.42013   0.95432   0.85455
C    -3.59290   2.15793   1.48918
C    -3.28334   3.37154   2.36824
H    -2.59891   4.04358   1.85609
H    -2.82312   3.05679   3.30203
H    -4.20173   3.90784   2.59159
C    -4.21498   2.58033   0.15557
H    -4.34868   1.71384  -0.48793
H    -3.56580   3.28578  -0.35723
H    -5.18009   3.04869   0.32952
C    -4.48903   1.15673   2.22258
H    -4.01370   0.82080   3.14140
H    -4.67415   0.28650   1.59727
H    -5.43808   1.62564   2.46790
N     1.32426  -1.09664  -0.93627
N    -0.83826  -1.82599   0.19437
N    -2.37836   1.50987   1.19657
O     1.19257   1.51878   0.13914
O     1.32098   0.70752   1.21294
Rh    0.00000   0.00000   0.00000
O    -0.96012   0.17194  -1.33083
