63

C     1.69239  -2.12359  -0.79958
C     0.64602  -2.09350  -1.76130
C     2.80324  -3.12564  -0.88345
H     3.51510  -2.97675  -0.07445
H     3.32600  -3.03395  -1.83533
H     2.40601  -4.13877  -0.82069
C     0.59233  -3.05911  -2.90519
H    -0.28869  -2.88065  -3.51674
H     0.56236  -4.08545  -2.53861
H     1.47881  -2.96024  -3.53242
C     2.55683  -1.12024   1.16006
C     2.36616  -1.82380   2.35207
C     3.30405  -1.68709   3.36258
H     3.16309  -2.22411   4.28975
C     4.40529  -0.86637   3.19926
H     5.12806  -0.76799   3.99572
C     4.57050  -0.15596   2.02408
H     5.41870   0.50314   1.90568
C     3.65231  -0.26913   0.99284
C     1.14404  -2.67428   2.51785
H     1.08419  -3.07203   3.52764
H     1.14551  -3.50706   1.81289
H     0.25357  -2.07284   2.32203
C     3.78568   0.51825  -0.27464
H     4.62777   1.20311  -0.21755
H     2.87276   1.09438  -0.44181
H     3.92650  -0.13967  -1.13361
C    -1.34819  -1.00529  -2.43694
C    -1.23723  -0.14687  -3.53636
C    -2.32756   0.00490  -4.37912
H    -2.24814   0.66265  -5.23285
C    -3.50818  -0.67675  -4.14063
H    -4.34825  -0.55297  -4.80774
C    -3.61515  -1.50633  -3.03802
H    -4.54119  -2.02870  -2.84455
C    -2.54477  -1.68139  -2.17439
C     0.03954   0.60095  -3.75948
H    -0.07943   1.34748  -4.54002
H     0.84092  -0.07913  -4.04714
H     0.33832   1.09257  -2.83036
C    -2.64658  -2.55247  -0.96199
H    -2.29170  -2.00014  -0.08833
H    -2.02238  -3.43923  -1.06956
H    -3.67301  -2.86816  -0.79617
C    -1.55066   1.03441  -0.30839
C    -3.70026   2.32460  -0.90374
C    -3.92469   3.42650   0.13624
H    -4.02811   2.99272   1.12780
H    -4.82665   3.98438  -0.10136
H    -3.07919   4.10991   0.14888
C    -3.50958   2.92192  -2.30181
H    -2.66544   3.60711  -2.30582
H    -4.40407   3.46309  -2.59843
H    -3.31738   2.12971  -3.02185
C    -4.86062   1.32401  -0.90030
H    -4.66945   0.53037  -1.61900
H    -5.78578   1.82884  -1.16526
H    -4.97128   0.88013   0.08603
N     1.59516  -1.21550   0.13984
N    -0.25840  -1.14646  -1.55101
N    -2.52626   1.62863  -0.56555
Ir    0.00000   0.00000   0.00000
O     0.38191   0.86310   1.35340
