25

Pt    0.00000   0.00000   0.00000
I    -0.49466  -2.27166   1.13979
S    -0.41252  -0.79635  -2.04169
C     0.99832  -0.63225  -3.18657
H     1.87579  -1.04149  -2.69330
H     0.77536  -1.17641  -4.09688
H     1.14954   0.41761  -3.41297
C    -0.69159  -2.57763  -2.31106
H     0.18489  -3.13614  -2.00261
H    -1.55829  -2.88969  -1.73825
H    -0.89092  -2.70372  -3.36927
O    -1.55844  -0.12853  -2.61690
N     0.27307   0.80701   1.81216
C    -0.67896   0.99036   2.70564
H    -1.71050   0.71355   2.58363
N    -0.17988   1.56277   3.81146
C     1.15222   1.74690   3.60402
H     1.79311   2.18917   4.33766
C     1.42761   1.27444   2.35453
H     2.35942   1.25092   1.82286
C    -0.92518   1.91340   4.98838
H    -0.24837   2.32439   5.73416
H    -1.68488   2.65905   4.74839
H    -1.41702   1.03107   5.40026
O     0.42745   1.44058  -0.68155
