53

Pd    0.00000   0.00000   0.00000
P    -1.51497  -0.22898  -1.71810
C    -2.02786   1.35739  -2.54785
H    -2.72312   1.12346  -3.35724
H    -1.09247   1.68173  -3.00725
C    -2.55378   2.56730  -1.73622
C    -2.03195   2.57573  -0.29645
H    -2.20052   1.61676   0.20851
H    -2.53337   3.35500   0.27496
H    -0.96395   2.79139  -0.29277
C    -2.04475   3.83807  -2.43672
H    -0.95738   3.87370  -2.44136
H    -2.40958   4.72469  -1.92332
H    -2.39313   3.87506  -3.46695
C    -4.08349   2.63656  -1.74516
H    -4.41545   3.55668  -1.26836
H    -4.46103   2.63434  -2.76626
H    -4.53211   1.80677  -1.20974
C    -3.12129  -1.20036  -1.39712
C    -3.67276  -0.69574  -0.05924
H    -2.91584  -0.79925   0.71855
H    -3.99348   0.33977  -0.10903
H    -4.53339  -1.29654   0.23069
C    -4.18182  -1.01801  -2.48332
H    -5.05177  -1.61940  -2.22131
H    -4.50749   0.01446  -2.56017
H    -3.83276  -1.34820  -3.45628
C    -2.82404  -2.68944  -1.20967
H    -2.04755  -2.82060  -0.45899
H    -3.72259  -3.18678  -0.84650
H    -2.53210  -3.17804  -2.13414
C    -0.51931  -1.08600  -3.10566
C     0.45580  -0.07982  -3.72955
H    -0.03793   0.56261  -4.45525
H     0.92359   0.53503  -2.96398
H     1.24219  -0.62037  -4.25510
C     0.31777  -2.15749  -2.39304
H     1.00738  -2.62810  -3.09338
H     0.90637  -1.70066  -1.57703
H    -0.30698  -2.93166  -1.95733
C    -1.32619  -1.70038  -4.24832
H    -1.94665  -2.52715  -3.92006
H    -0.63716  -2.08598  -4.99984
H    -1.95374  -0.95197  -4.72786
C     1.61206   0.22622   1.37927
H     1.49915   0.15280   2.45585
H     2.32602  -0.47854   0.94194
C     1.36417   1.44355   0.74460
H     0.94149   2.27396   1.31149
C     1.40664   1.49057  -0.66173
H     1.19700   2.42926  -1.16276
H     2.17254   0.88802  -1.15332
O    -0.50696  -1.26335   0.93244
