47

C     0.00162  -4.69577  -0.00098
C     2.88621   0.57450  -1.41615
C     3.96632   0.47567  -2.27614
C     3.87230  -0.36869  -3.36978
C     2.69383  -1.07218  -3.55300
C     1.66822  -0.90400  -2.63866
C     0.36857   2.55362  -1.07809
C     0.39355   3.93587  -1.11765
C     0.00096   4.65246  -0.00065
C     1.13718  -2.59595  -0.05651
C     1.18311  -3.97852  -0.06615
H     0.64621   1.99859  -1.96230
H     0.70809   4.43205  -2.02193
H     2.06573  -2.04578  -0.08425
H     2.13980  -4.47366  -0.11581
H     2.94335   1.22425  -0.55268
H     4.85949   1.04962  -2.08588
H     4.69483  -0.47401  -4.06197
H     2.56360  -1.74023  -4.38984
H     0.73618  -1.43672  -2.77328
H     0.00126   5.73161  -0.00083
H     0.00193  -5.77508  -0.00166
I    -1.72831   0.06164  -1.94644
Ni    0.00000   0.00000   0.00000
N     1.75113  -0.10086  -1.58080
N     0.00032   1.86256  -0.00014
N     0.00078  -1.90080   0.00062
C    -1.18028  -3.97930   0.06519
C    -1.13517  -2.59672   0.05720
N    -1.75060  -0.10026   1.58122
C    -0.36768   2.55419   1.07756
C    -0.39201   3.93647   1.11661
H    -2.13668  -4.47506   0.11432
H    -2.06404  -2.04714   0.08564
C    -2.88532   0.57569   1.41651
C    -1.66851  -0.90417   2.63854
H    -0.64569   1.99962   1.96194
H    -0.70630   4.43315   2.02071
C    -3.96591   0.47663   2.27584
H    -2.94184   1.22598   0.55340
C    -2.69468  -1.07267   3.55219
H    -0.73673  -1.43730   2.77326
C    -3.87279  -0.36861   3.36886
H    -4.85875   1.05108   2.08552
H    -2.56514  -1.74137   4.38861
H    -4.69574  -0.47414   4.06052
O     1.09575   0.03837   1.23303
