44

Zn    0.00000   0.00000   0.00000
Cl    0.56611   2.13065  -0.41944
N     1.33838  -0.88605  -1.26684
N     1.35407  -0.66970   1.61515
N     2.29980  -0.18654  -3.30015
N     0.27235  -1.31485  -3.25626
C     1.30056  -0.75273  -2.56365
C    -0.41438  -0.86185   3.37350
H    -0.97753  -1.60888   3.92729
H    -1.10150  -0.35213   2.70113
H    -0.01405  -0.14304   4.08320
C     2.57881  -0.78869  -0.53084
H     2.89777   0.24809  -0.39567
H     3.37291  -1.33097  -1.05699
C     1.95576   0.51036   2.26109
H     1.14256   1.14145   2.62276
H     2.46980   1.07920   1.48537
C    -0.55336  -2.32453  -2.63005
H     0.06042  -2.91983  -1.95892
H    -0.95815  -2.96433  -3.41539
H    -1.38119  -1.89613  -2.05985
C     2.34556  -1.42413   0.83967
H     1.95278  -2.42989   0.67577
H     3.29657  -1.50728   1.37652
C    -0.40390  -0.56673  -4.29554
H     0.14004   0.34468  -4.52507
H    -1.40384  -0.28650  -3.95205
H    -0.50160  -1.17149  -5.20023
C     0.68001  -1.55607   2.57704
H     1.41509  -2.00503   3.25921
H     0.21842  -2.36015   1.99830
C     2.62566  -0.64454  -4.62944
H     2.16639  -1.61335  -4.80730
H     3.71149  -0.74963  -4.70476
H     2.29898   0.05556  -5.40507
C     2.93569   1.04960  -2.89810
H     2.35589   1.53080  -2.11170
H     2.96136   1.72639  -3.75506
H     3.96277   0.88577  -2.55882
C     2.92477   0.23902   3.41110
H     3.34230   1.18828   3.73666
H     3.75019  -0.40150   3.10955
H     2.42469  -0.21650   4.26163
O    -1.58731  -0.44909   0.03548
