38

Zn    0.00000   0.00000   0.00000
Cl    0.76139  -0.29963   2.09705
C    -2.38541  -1.07653   1.26236
C    -2.97433   0.58486   2.94325
H    -2.52788  -0.15049   3.60570
H    -3.99335   0.80717   3.26949
H    -2.37623   1.49656   3.01207
N     0.83133  -1.66999  -1.10513
N    -2.96381   0.10902   1.57497
N    -1.68956  -1.16815   0.16189
C    -3.06225   1.15789   0.58570
H    -3.20663   0.71679  -0.39742
H    -2.16741   1.78831   0.55708
H    -3.92180   1.78188   0.83436
C    -1.61357  -2.98638   2.58926
H    -0.64854  -2.55517   2.33184
H    -1.68490  -4.00998   2.20913
H    -1.68095  -3.02122   3.67991
C     0.63078  -1.53653  -2.54542
H     0.95177  -2.44293  -3.07388
H     1.20485  -0.68698  -2.90956
H    -0.41710  -1.34506  -2.76024
N    -2.67078  -2.14283   2.07411
C    -1.44663  -2.44284  -0.47678
H    -1.85356  -2.36247  -1.49206
H    -1.96942  -3.25960   0.02857
C    -3.94210  -2.26559   2.74651
H    -4.66904  -1.60695   2.27881
H    -3.88095  -2.03411   3.81490
H    -4.28802  -3.29802   2.64393
C     2.25070  -1.89072  -0.83474
H     2.59851  -2.82902  -1.28444
H     2.41860  -1.92451   0.24059
H     2.82849  -1.06500  -1.24666
C     0.04549  -2.77818  -0.55980
H     0.41625  -2.97173   0.44811
H     0.18117  -3.68628  -1.16575
O     0.12435   1.38000  -0.89591
