59

Zn    0.00000   0.00000   0.00000
Cl    0.39383   1.99988  -0.92011
N    -2.05975   0.05217   0.68876
N     2.78324  -1.11729   1.67572
C    -2.94724   0.49445  -0.40507
H    -2.56297   1.45870  -0.74869
H    -3.96313   0.65737  -0.01754
C    -2.15487   1.05908   1.75781
H    -3.17007   1.05390   2.17863
H    -1.99887   2.03433   1.28869
N     3.05825   1.08693   2.36595
C    -2.38409  -1.30526   1.15921
H    -1.66816  -1.55870   1.94285
H    -2.19438  -1.98778   0.33008
C    -2.99736  -0.44897  -1.59698
H    -3.51683   0.04664  -2.41379
H    -3.52484  -1.37164  -1.36957
H    -1.99335  -0.69403  -1.93534
C     0.27652   1.34087   2.50340
H     0.21541   2.24391   1.88855
H     0.85026   1.57734   3.40733
N     0.93351   0.26380   1.78897
C    -1.14378   0.92929   2.89535
H    -1.47653   1.59892   3.69186
H    -1.12894  -0.08280   3.30012
C     2.22388   0.09826   1.91488
C    -3.79978  -1.53138   1.68762
H    -3.89524  -2.57569   1.97437
H    -4.55079  -1.32244   0.93088
H    -4.00721  -0.92412   2.56540
C     4.09531   0.80121   3.33631
H     5.08825   1.03781   2.93801
H     4.05819  -0.26750   3.55582
C     4.29773   2.85155   1.14331
H     4.12816   3.77225   0.59224
H     4.64155   2.09429   0.44293
H     5.07600   3.03396   1.88063
C     4.01323  -1.20369   0.90269
H     4.42397  -2.20529   1.04073
H     4.74093  -0.48455   1.28123
C     2.98434   2.42179   1.79489
H     2.69683   3.15568   2.55644
H     2.21630   2.40673   1.02108
C     1.99352  -2.33415   1.75400
H     1.99047  -2.85047   0.79244
H     0.96565  -2.06099   1.98762
C     3.87981   1.58174   4.63388
H     4.62492   1.28230   5.36633
H     2.89182   1.37704   5.03996
H     3.97362   2.65126   4.46766
C     2.53613  -3.25156   2.84891
H     1.92124  -4.14487   2.91202
H     2.51694  -2.74625   3.81244
H     3.55885  -3.55582   2.63974
C     3.76846  -0.94001  -0.58179
H     4.70345  -1.01044  -1.13228
H     3.35031   0.05524  -0.72563
H     3.06693  -1.66034  -0.99371
O     0.24756  -1.40243  -0.83331
