48

Zn    0.00000   0.00000   0.00000
Cl    1.39401   1.36797   1.02289
N     0.33717   0.01189  -2.18265
N     0.80648  -1.88541  -0.22972
N     0.35837  -4.20000  -0.22673
C     0.58332  -5.43111   0.49437
H     1.39078  -5.98599   0.00693
H    -0.30893  -6.06334   0.49765
H     0.87499  -5.21664   1.51853
N     0.08850  -2.94424   1.69223
C     2.77575  -2.68460  -1.39620
H     2.93257  -3.41320  -0.61375
C     0.43091  -2.98093   0.38041
C     1.48494  -0.84853  -2.29175
C     1.66051  -1.84843  -1.32046
C     2.41958  -0.72947  -3.31069
H     2.30419   0.03221  -4.06527
C     3.69160  -2.55379  -2.42037
H     4.55022  -3.20711  -2.46006
C    -0.85718  -0.62892  -2.76476
H    -1.70263   0.04513  -2.62587
H    -1.07173  -1.52286  -2.17503
C    -0.45506   2.37273  -2.20583
H    -0.15140   3.37167  -2.50978
H    -0.51138   2.35368  -1.11709
H    -1.44502   2.18036  -2.61203
C     0.21072  -4.36310  -1.65056
H    -0.16607  -3.44753  -2.09705
H    -0.51011  -5.16296  -1.83670
H     1.15881  -4.62383  -2.13375
C     0.57336   1.36632  -2.70274
H     0.57858   1.37658  -3.79945
H     1.55922   1.67262  -2.34459
C    -0.73393  -1.01231  -4.23714
H    -1.63969  -1.52915  -4.54403
H     0.11424  -1.67491  -4.39926
H    -0.61790  -0.13684  -4.87085
C     0.53665  -1.85584   2.53284
H     0.65263  -2.24012   3.54785
H    -0.18011  -1.02875   2.55870
H     1.49626  -1.48252   2.18223
C     3.51255  -1.57627  -3.38231
H     4.22428  -1.46371  -4.18553
C    -1.14946  -3.54529   2.14901
H    -0.98667  -4.06622   3.09421
H    -1.53575  -4.24082   1.41121
H    -1.89689  -2.76056   2.29799
O    -1.58537  -0.30010   0.34501
