63

Au    0.00000   0.00000   0.00000
N     2.18711   1.28485   1.49429
N     3.27770   1.16040   2.21271
N     3.48515  -0.12865   2.29974
C     1.64463   0.11159   1.10171
C     2.52437  -0.82866   1.64286
C     1.65093   2.56551   1.19988
C     0.78698   3.15150   2.12731
C     0.27899   4.40781   1.83233
C     0.60857   5.04279   0.64921
C     1.44865   4.43371  -0.26170
C     1.98787   3.17993  -0.00498
C     0.45275   2.43940   3.41668
C     1.44106   2.87853   4.50252
C    -0.98901   2.67498   3.86369
C     2.89535   2.51582  -1.01160
C     4.16299   3.34705  -1.22342
C     2.15149   2.29275  -2.32989
C     4.59074  -0.61146   3.07498
C     2.46542  -2.27787   1.55207
C     3.59474  -3.05110   1.30204
C     3.49799  -4.42662   1.19544
C     2.27949  -5.08016   1.33558
C     1.15339  -4.29433   1.57849
C     1.23605  -2.92264   1.68113
C     2.13106  -6.58783   1.22695
C     3.45967  -7.29437   0.94395
C     1.57186  -7.12892   2.55070
C     1.16216  -6.91086   0.08085
H    -0.38511   4.89463   2.52759
H     0.19992   6.01855   0.43344
H     1.68651   4.93681  -1.18553
H     0.56806   1.36116   3.25739
H     1.35036   3.94755   4.68100
H     2.46365   2.66768   4.19519
H     1.23726   2.35285   5.43282
H    -1.67552   2.47800   3.04392
H    -1.13634   3.69430   4.21044
H    -1.23159   2.00410   4.68484
H     3.19764   1.53380  -0.63339
H     4.68036   3.49922  -0.27814
H     3.92293   4.31972  -1.64390
H     4.83403   2.83413  -1.90869
H     2.78478   1.75009  -3.02799
H     1.86961   3.23844  -2.78428
H     1.24795   1.71025  -2.15838
H     4.78547   0.10296   3.87367
H     5.48688  -0.69578   2.45750
H     4.34477  -1.58697   3.49180
H     4.55503  -2.58014   1.14906
H     4.39883  -4.98188   0.99148
H     0.18428  -4.75568   1.68600
H     0.34822  -2.33673   1.86263
H     3.88552  -6.96384  -0.00058
H     3.29057  -8.36694   0.87708
H     4.17748  -7.11841   1.74225
H     1.46534  -8.20994   2.49581
H     0.59803  -6.70250   2.77386
H     2.24590  -6.89034   3.37130
H     1.53738  -6.50360  -0.85556
H     0.17672  -6.49182   0.26201
H     1.05918  -7.98827  -0.02758
O    -1.36455  -0.04741  -0.92642
