42

Fe    0.00000   0.00000   0.00000
Cl    0.11470  -1.84086   0.78619
P    -0.21592  -2.03591  -2.81973
O     0.16837  -0.72774  -2.22798
N    -2.46490  -0.01225  -0.36632
N    -1.86357  -2.41137  -2.76366
C    -2.95321   1.21203  -0.16838
H    -2.49364   1.77411   0.63291
C    -3.97706   1.75807  -0.92144
H    -4.32706   2.75760  -0.71994
C    -4.53411   0.99201  -1.93369
H    -5.33127   1.37962  -2.55072
C    -4.05756  -0.29346  -2.12049
H    -4.48766  -0.93599  -2.87550
C    -3.02727  -0.76521  -1.31299
C    -2.53528  -2.18152  -1.48813
H    -1.83241  -2.41924  -0.68646
H    -3.39131  -2.86539  -1.42836
C     0.60181  -3.44480  -2.02916
C     1.91607  -3.25535  -1.62304
H     2.36799  -2.28163  -1.75515
C     2.61250  -4.29444  -1.03579
H     3.63128  -4.14788  -0.70937
C     1.99608  -5.52319  -0.85905
H     2.53621  -6.33407  -0.39301
C     0.68733  -5.71317  -1.27105
H     0.20956  -6.67113  -1.12623
C    -0.01244  -4.67647  -1.86253
H    -1.03584  -4.80997  -2.17935
C     0.16612  -2.12403  -4.58657
C     0.78641  -1.03987  -5.18836
H     1.00652  -0.16929  -4.58777
C     1.10599  -1.09091  -6.53414
H     1.58880  -0.24916  -7.00783
C     0.80735  -2.22547  -7.27096
H     1.05795  -2.26721  -8.32069
C     0.19101  -3.31088  -6.66618
H    -0.03607  -4.19391  -7.24523
C    -0.12780  -3.26465  -5.32152
H    -0.60102  -4.10381  -4.83332
H    -2.38162  -2.02554  -3.54481
O     0.15975   1.59222  -0.40226
