35

Re    0.00000   0.00000   0.00000
Cl    2.98455  -6.24518   1.70312
N    -0.72146  -1.99917  -0.02464
N    -1.98677   0.15399  -0.77570
O     0.82238   2.89764  -0.69086
O     2.88727  -0.91701   0.60679
O    -0.82183   0.53802   2.93022
C    -2.38555  -3.57225  -0.93832
H    -1.83551  -4.33659  -0.39394
H    -2.33445  -3.79995  -2.00293
H    -3.43008  -3.60436  -0.63118
C    -1.81429  -2.21579  -0.67197
C    -2.53834  -1.02800  -1.12162
C    -3.70976  -1.09228  -1.87696
H    -4.12111  -2.04699  -2.16075
C    -4.32400   0.07793  -2.27844
H    -5.22235   0.04828  -2.87561
C    -3.75947   1.28749  -1.89974
H    -4.20393   2.22667  -2.18619
C    -2.59534   1.27305  -1.15220
H    -2.12835   2.20032  -0.84613
C     0.12057  -3.04672   0.38221
C     0.70635  -3.89329  -0.55766
H     0.49899  -3.74835  -1.60743
C     1.59787  -4.86791  -0.15359
H     2.06592  -5.51141  -0.88140
C     1.88816  -5.01350   1.19403
C     1.31460  -4.17369   2.13846
H     1.55784  -4.28896   3.18238
C     0.44260  -3.18451   1.73185
H     0.00349  -2.51111   2.45339
C     0.53904   1.84131  -0.35793
C     1.83144  -0.51345   0.44338
C    -0.49912   0.35380   1.84255
O     0.30510  -0.35248  -1.58277
