46

Re    0.00000   0.00000   0.00000
O    -1.95246  -1.93533  -1.41425
O    -2.03870   2.28713   0.39316
O    -0.50307  -1.05807   2.85809
N     1.07890  -1.42806  -2.59301
N     1.68116  -1.38682  -0.33172
N     0.70347   0.78723  -1.92666
C    -0.75165  -4.18703  -5.20470
C    -0.75983  -2.80291  -5.51382
C    -0.13716  -1.89350  -4.63836
H    -0.19076  -0.84263  -4.88083
C     0.49634  -2.32591  -3.49697
C     0.45690  -3.70015  -3.16875
H     0.88119  -4.03657  -2.23504
C    -0.14361  -4.59751  -4.00086
H    -0.17019  -5.64384  -3.73391
C    -1.36722  -5.09334  -6.09021
H    -1.35699  -6.14583  -5.84570
C    -1.96700  -4.64898  -7.23548
H    -2.43754  -5.34705  -7.91184
C    -1.98001  -3.27901  -7.54092
H    -2.46085  -2.94434  -8.44830
C    -1.39257  -2.37572  -6.70035
H    -1.40265  -1.32033  -6.93308
C     1.92602  -1.86079  -1.55474
C     3.00727  -2.69630  -1.82927
H     3.16929  -3.04266  -2.83841
C     3.85470  -3.05036  -0.79828
H     4.70160  -3.69306  -0.98361
C     3.60571  -2.54339   0.46975
H     4.24707  -2.78187   1.30214
C     2.51616  -1.71525   0.65360
H     2.30321  -1.28929   1.62473
C     1.16952  -0.04433  -2.85943
C     1.78664   0.40840  -4.02309
H     2.18078  -0.30520  -4.73003
C     1.89729   1.76930  -4.23385
H     2.37586   2.14725  -5.12432
C     1.39996   2.63218  -3.26778
H     1.46768   3.70120  -3.38544
C     0.82442   2.09881  -2.13120
H     0.45256   2.74400  -1.34674
C    -1.24427  -1.20981  -0.87220
C    -1.32299   1.40466   0.24713
C    -0.36672  -0.68045   1.78517
O     1.21543   0.96537   0.55973
