65

Pd    0.00000   0.00000   0.00000
P     0.73813   0.97510  -1.86661
S    -0.75158  -1.06898   1.93557
S     1.98993  -2.28214   2.11649
S     1.99936   5.38821   0.84146
S     4.66199   4.03975   0.67262
C     1.19448   1.02534   1.26376
C     1.45439   0.41373   2.49769
C     2.24041   1.04153   3.45763
H     2.42752   0.54727   4.40047
C     2.78465   2.28508   3.20892
H     3.40621   2.76423   3.95075
C     2.52711   2.92019   1.99969
C     1.73174   2.28860   1.05311
H     1.53035   2.81034   0.12543
C     0.88534  -0.93916   2.76040
H     0.75992  -1.14149   3.82688
C    -0.53472  -2.76568   1.32603
H    -0.69775  -3.45483   2.15658
H    -1.27956  -2.91325   0.53986
C     0.87464  -2.85037   0.78585
H     0.99948  -2.20110  -0.10824
H     1.16369  -3.87324   0.54595
C     3.15362   4.24294   1.70394
H     3.48633   4.73193   2.62156
C     2.99969   5.65500  -0.66357
H     2.30042   5.84263  -1.47699
H     3.62899   6.53104  -0.50095
C     3.83556   4.41963  -0.90016
H     4.61643   4.58942  -1.63981
H     3.22989   3.56302  -1.19685
C     0.18905   0.32462  -3.46949
C     0.80569  -0.83444  -3.93441
H     1.60370  -1.28006  -3.35211
C     0.38947  -1.41313  -5.11667
H     0.86576  -2.31481  -5.47276
C    -0.64755  -0.84238  -5.83866
H    -0.97822  -1.29932  -6.75965
C    -1.26885   0.30383  -5.37320
H    -2.08510   0.74093  -5.92973
C    -0.85767   0.88823  -4.18807
H    -1.35605   1.77271  -3.81566
C     0.05177   2.66617  -1.83732
C    -1.01320   2.86868  -0.95755
H    -1.36532   2.03415  -0.33179
C    -1.61378   4.11029  -0.86665
H    -2.43434   4.26455  -0.18236
C    -1.15720   5.15857  -1.64991
H    -1.62052   6.13071  -1.57502
C    -0.10299   4.96130  -2.52597
H     0.24845   5.77803  -3.14084
C     0.50310   3.72017  -2.62317
H     1.33126   3.57900  -3.30231
C     2.53671   1.07792  -2.13721
C     3.07447   1.56691  -3.32526
H     2.41997   1.86149  -4.13432
C     4.44636   1.64671  -3.48050
H     4.85974   2.03308  -4.40087
C     5.28945   1.22563  -2.46369
H     6.35964   1.29868  -2.58623
C     4.75992   0.68975  -1.30155
H     5.41331   0.33612  -0.51868
C     3.38831   0.60730  -1.14263
H     2.96376   0.17357  -0.24199
O    -1.05867  -0.83807  -0.94835
