67

Ti    0.00000   0.00000   0.00000
F    -1.22817   4.30225  -2.31293
F    -2.66830   2.83933  -2.96681
F    -1.00326   3.34221  -4.21532
O     1.23796   0.13181  -1.26320
N    -0.91174   1.57944  -1.10687
C    -2.07809   2.02519  -0.45368
C    -2.06939   3.19450   0.30262
H    -1.18793   3.82085   0.31938
C    -3.18667   3.54467   1.04106
H    -3.16980   4.45206   1.62557
C    -4.31320   2.74157   1.03034
H    -5.17942   3.01599   1.61242
C    -4.32563   1.58264   0.26990
H    -5.20351   0.95490   0.25603
C    -3.21740   1.21794  -0.47010
H    -3.21056   0.30972  -1.05921
C    -0.52204   2.03727  -2.26107
C     0.64743   1.64289  -2.92689
H     0.86347   2.07375  -3.88840
C     1.51002   0.69518  -2.37711
C     2.77446   0.30720  -3.02479
C     3.40640   1.08310  -3.99643
H     2.97004   2.01442  -4.32047
C     4.61543   0.67513  -4.52688
H     5.10348   1.28168  -5.27507
C     5.20577  -0.50506  -4.10155
H     6.14969  -0.81750  -4.52248
C     4.58616  -1.28014  -3.13367
H     5.04489  -2.19817  -2.79918
C     3.38142  -0.87627  -2.59398
H     2.88494  -1.46929  -1.83582
C    -1.36110   3.12046  -2.94464
Cl    1.12908  -1.48750   1.19865
O    -1.23806   0.13197   1.26307
C    -1.51011   0.69537   2.37694
C    -0.64741   1.64295   2.92677
C     0.52209   2.03728   2.26097
N     0.91177   1.57950   1.10674
C     2.07815   2.02524   0.45358
C     2.06948   3.19454  -0.30273
H     1.18803   3.82091  -0.31950
C     3.18676   3.54467  -1.04118
H     3.16991   4.45207  -1.62568
C     4.31327   2.74155  -1.03048
H     5.17950   3.01596  -1.61255
C     4.32567   1.58262  -0.27003
H     5.20354   0.95487  -0.25615
C     3.21744   1.21795   0.46998
H     3.21057   0.30972   1.05909
C     1.36117   3.12046   2.94453
F     1.22825   4.30227   2.31284
F     2.66837   2.83931   2.96670
F     1.00333   3.34220   4.21522
H    -0.86340   2.07377   3.88831
C    -2.77443   0.30724   3.02471
C    -3.40638   1.08309   3.99636
H    -2.97013   2.01450   4.32028
C    -4.61543   0.67512   4.52675
H    -5.10356   1.28173   5.27483
C    -5.20579  -0.50503   4.10134
H    -6.14965  -0.81756   4.52233
C    -4.58616  -1.28008   3.13343
H    -5.04472  -2.19828   2.79916
C    -3.38138  -0.87623   2.59384
H    -2.88481  -1.46930   1.83579
O    -0.83910  -1.10592  -0.89182
