61

Pt    0.00000   0.00000   0.00000
P    -1.01580   2.05899   0.52786
P    -2.02579  -0.67011  -0.76384
C     0.87527  -1.81124  -0.21585
C     1.41015  -2.25712  -1.42122
H     1.34774  -1.63790  -2.30843
C     2.05075  -3.48255  -1.51101
H     2.46336  -3.80408  -2.45795
C     2.16944  -4.29127  -0.39491
H     2.66975  -5.24692  -0.46469
C     1.65317  -3.86043   0.81447
H     1.74994  -4.47930   1.69630
C     1.01425  -2.63416   0.90044
H     0.62718  -2.31583   1.86369
C    -2.85494   1.77201   0.40470
H    -3.17492   1.36523   1.36669
H    -3.38049   2.71802   0.24611
C    -3.19450   0.77962  -0.70810
H    -3.10620   1.27955  -1.67584
H    -4.22382   0.42122  -0.60657
C    -0.78536   3.73107  -0.25856
H    -1.54424   4.42369   0.12694
C    -0.95833   3.57820  -1.76715
H    -0.77976   4.52742  -2.27024
H    -1.96501   3.24723  -2.01831
H    -0.24260   2.84981  -2.14619
C     0.61732   4.23828   0.06571
H     0.87854   5.07210  -0.58412
H     1.34631   3.44181  -0.08487
H     0.68982   4.57832   1.09625
C    -0.74924   2.38159   2.33465
H     0.29770   2.70464   2.38841
C    -0.85111   1.04813   3.07371
H    -0.46160   1.14091   4.08573
H    -0.25470   0.29373   2.54542
H    -1.88224   0.70369   3.13807
C    -1.64628   3.44703   2.95456
H    -1.38707   3.57610   4.00451
H    -2.69496   3.16003   2.90138
H    -1.52522   4.40772   2.45936
C    -1.94617  -1.09381  -2.56797
H    -1.37350  -2.02933  -2.59291
C    -1.11421  -0.01843  -3.26527
H    -0.76353  -0.37042  -4.23333
H    -0.24330   0.22961  -2.64709
H    -1.69391   0.88828  -3.42718
C    -3.29409  -1.30504  -3.24843
H    -3.13865  -1.55403  -4.29705
H    -3.90357  -0.40477  -3.20467
H    -3.84746  -2.12001  -2.78794
C    -3.01445  -2.04370   0.00635
H    -4.03312  -2.01634  -0.40110
C    -3.05726  -1.79009   1.51024
H    -3.54293  -2.61635   2.02637
H    -3.60570  -0.87808   1.73886
H    -2.03993  -1.69394   1.88954
C    -2.37050  -3.39388  -0.28933
H    -2.86258  -4.17569   0.28698
H    -1.31692  -3.37472  -0.01504
H    -2.44876  -3.65216  -1.34257
O     1.49261   0.56217   0.42257
