57

Pd    0.00000   0.00000   0.00000
P     1.38587  -1.14928  -1.29131
N    -1.32251   1.04976   1.26629
C    -2.46536  -1.04241   0.90215
C    -1.57810  -1.21239  -0.14617
C    -1.93540  -2.05738  -1.21275
H    -1.26090  -2.17568  -2.05521
C    -3.12587  -2.73118  -1.20319
H    -3.39962  -3.37340  -2.02968
C    -4.01832  -2.61416  -0.11888
C    -5.23150  -3.33235  -0.08623
H    -5.46883  -3.97849  -0.92009
C    -6.08690  -3.22207   0.97252
H    -7.01358  -3.77698   0.99147
C    -5.75970  -2.38507   2.04937
H    -6.43802  -2.31044   2.88741
C    -4.59445  -1.67116   2.04688
H    -4.36104  -1.04371   2.89415
C    -3.68782  -1.75460   0.96600
C    -2.00791  -0.06501   1.96584
H    -2.84542   0.34595   2.55115
C    -1.03971  -0.80706   2.89805
H    -0.09942  -1.01509   2.35539
H    -1.48426  -1.75785   3.18646
H    -0.82269  -0.24223   3.80208
C    -2.27772   1.81253   0.46159
H    -2.99258   2.34630   1.10429
H    -2.83709   1.14783  -0.20021
H    -1.73578   2.54586  -0.14138
C    -0.67803   1.96489   2.20694
H    -0.27157   2.81445   1.65764
H     0.15675   1.47586   2.70894
H    -1.39868   2.32948   2.95230
C     3.11784  -1.01510  -1.04993
C     4.28766  -0.83989  -0.81614
C     5.69256  -0.63992  -0.56279
H     6.08958  -1.47011   0.02113
H     5.82814   0.28683  -0.00595
H     6.23665  -0.57213  -1.50471
C     1.26671  -2.89160  -1.53590
C     1.14842  -4.08852  -1.61746
C     1.01232  -5.51897  -1.75056
H     1.80391  -6.02092  -1.19477
H     1.07785  -5.80592  -2.79996
H     0.04626  -5.83233  -1.35517
C     1.16801  -0.49500  -2.97719
C     1.91354  -0.96906  -4.04980
H     2.64017  -1.75362  -3.88837
C     1.71976  -0.43024  -5.30857
H     2.29829  -0.79349  -6.14561
C     0.78711   0.57790  -5.49739
H     0.64213   0.99808  -6.48194
C     0.04320   1.05163  -4.42841
H    -0.67956   1.83986  -4.58110
C     0.23109   0.51588  -3.16684
H    -0.34274   0.88546  -2.30510
O     1.20755   1.12204   0.07299
