70

Pd    0.00000   0.00000   0.00000
P     0.26253  -2.22364   0.18623
C     0.02505   2.20132  -0.00152
H    -0.65095   2.84827  -0.54851
C    -0.18383   1.72752   1.30741
H    -1.09087   1.84357   1.89281
C     0.96751   0.99729   1.69545
H     1.14756   0.61812   2.69343
C     2.03846   1.33631   0.76700
C     3.40376   1.08533   0.77103
H     3.86391   0.54134   1.58533
C     4.16727   1.55774  -0.28545
H     5.23333   1.38217  -0.29012
C     3.58611   2.25431  -1.33867
H     4.20896   2.60525  -2.14843
C     2.22458   2.51484  -1.36572
H     1.78086   3.05771  -2.18833
C     1.44402   2.07039  -0.30631
C     1.00720  -2.76795   1.80869
H     1.90116  -2.12768   1.88053
C     0.06861  -2.38989   2.95464
H    -0.78656  -3.06836   2.96351
H    -0.30831  -1.37052   2.80440
C     0.79896  -2.50983   4.28874
H     1.64666  -1.82079   4.30689
H     0.12979  -2.23911   5.10806
C     1.30089  -3.93919   4.47741
H     1.85393  -4.01973   5.41512
H     0.44564  -4.61655   4.53606
C     2.19515  -4.35543   3.31254
H     2.51869  -5.38974   3.44640
H     3.08814  -3.72599   3.29934
C     1.45987  -4.21653   1.97825
H     0.60115  -4.88720   1.97173
H     2.12837  -4.51791   1.17072
C    -1.36662  -3.04534  -0.13270
H    -1.50139  -2.87726  -1.21018
C    -1.49670  -4.53619   0.15842
H    -0.68281  -5.09380  -0.31033
H    -1.45781  -4.71259   1.23504
C    -2.84491  -5.02602  -0.36991
H    -2.88077  -4.88505  -1.45203
H    -2.95770  -6.09317  -0.16581
C    -3.98803  -4.24956   0.27963
H    -3.99312  -4.44748   1.35465
H    -4.94216  -4.59188  -0.12515
C    -3.83331  -2.74848   0.04326
H    -3.89502  -2.53643  -1.02550
H    -4.64267  -2.21034   0.54036
C    -2.48483  -2.26716   0.57042
H    -2.44456  -2.42535   1.64990
H    -2.36287  -1.18638   0.37342
C     1.48975  -2.81292  -1.08258
H     2.00686  -3.70459  -0.70878
C     2.49601  -1.66279  -1.22478
H     1.94977  -0.75664  -1.54664
H     2.96440  -1.45413  -0.25657
C     3.56815  -1.98228  -2.25940
H     4.24950  -1.13441  -2.35008
H     4.14922  -2.84869  -1.93150
C     2.91742  -2.28373  -3.60458
H     2.37049  -1.40244  -3.94419
H     3.68182  -2.51771  -4.34814
C     1.94761  -3.45192  -3.46448
H     2.49720  -4.34483  -3.15281
H     1.48108  -3.66579  -4.42761
C     0.86208  -3.13289  -2.43806
H     0.18968  -3.98863  -2.34988
H     0.28451  -2.26991  -2.77643
O    -0.73797  -0.17680  -1.46514
