52

Pd    0.00000   0.00000   0.00000
P     1.41954   1.69613   0.22706
C    -1.25359  -1.66713  -0.72894
H    -1.75867  -2.41655  -0.13144
C    -1.81115  -0.43854  -1.13745
H    -2.76427  -0.03135  -0.81651
C    -0.87473   0.20871  -1.98108
H    -1.05784   1.12615  -2.52680
C     0.12188  -0.77827  -2.37911
C     1.16642  -0.74297  -3.29414
H     1.35332   0.14541  -3.88237
C     1.95818  -1.87284  -3.43496
H     2.76638  -1.86774  -4.15173
C     1.73301  -3.01183  -2.66933
H     2.36998  -3.87368  -2.80402
C     0.70944  -3.06260  -1.73487
H     0.55057  -3.94726  -1.13472
C    -0.10992  -1.94977  -1.58879
C     3.04394   1.00724   0.65294
C     3.97317   1.60948   1.48902
H     3.75174   2.55961   1.95285
C     5.17499   0.97059   1.74592
H     5.89625   1.43223   2.40431
C     5.45013  -0.25873   1.17160
H     6.38712  -0.75308   1.38137
C     4.51887  -0.86603   0.34207
H     4.72704  -1.83231  -0.09257
C     3.31513  -0.23918   0.08747
H     2.55820  -0.71940  -0.53920
C     0.96115   2.93608   1.46328
C     1.63874   4.14336   1.60818
H     2.47480   4.37338   0.96117
C     1.22229   5.04869   2.56701
H     1.74735   5.98522   2.68652
C     0.13018   4.75916   3.37087
H    -0.18831   5.47047   4.11856
C    -0.55934   3.56761   3.21182
H    -1.41647   3.35185   3.83196
C    -0.14861   2.65632   2.25570
H    -0.67691   1.71203   2.11044
C     1.73770   2.67877  -1.27091
C     2.84394   2.46648  -2.08505
H     3.59599   1.74649  -1.79364
C     2.97704   3.17847  -3.26486
H     3.83801   3.01320  -3.89596
C     2.01029   4.09646  -3.63957
H     2.11755   4.64803  -4.56176
C     0.90005   4.30355  -2.83440
H     0.14293   5.01524  -3.12968
C     0.75999   3.59281  -1.65864
H    -0.10848   3.73448  -1.02624
O     0.46909  -0.58707   1.46895
