34

Pd    0.00000   0.00000   0.00000
P    -0.41907   2.07606  -0.66495
O    -0.89695   2.19725  -2.18613
C    -1.57288   1.09256  -2.77786
H    -1.05404   0.14840  -2.54008
H    -1.56028   1.25957  -3.85382
H    -2.59996   1.03220  -2.41491
O    -1.62791   2.83730   0.08159
C    -1.89152   2.55661   1.45007
H    -1.35035   1.65283   1.77749
H    -2.96270   2.38465   1.55334
H    -1.58443   3.40658   2.06177
O     0.78143   3.13909  -0.65334
C     0.58314   4.45285  -1.17125
H     0.62338   4.43608  -2.26016
H     1.39127   5.06692  -0.77574
H    -0.38162   4.85007  -0.85356
C     0.76968  -1.99477   0.36187
H     0.26886  -2.79534   0.89306
C     1.65639  -1.06123   0.94320
H     1.84657  -0.93556   2.00369
C     2.17398  -0.25392  -0.09546
H     2.92460   0.51574   0.02713
C     1.90021  -0.92378  -1.36492
C     2.31726  -0.68245  -2.66632
H     2.97750   0.14340  -2.88993
C     1.87334  -1.53222  -3.66971
H     2.20152  -1.36927  -4.68556
C     1.01387  -2.58841  -3.39293
H     0.68696  -3.22971  -4.19776
C     0.56713  -2.83602  -2.10250
H    -0.10908  -3.65324  -1.89686
C     1.01721  -2.01226  -1.07946
O    -1.61192  -0.34331   0.07969
