35

Pd    0.00000   0.00000   0.00000
Cl    2.10968   0.59313  -0.25939
O    -1.81028  -6.56132   6.00674
H    -1.84255  -7.33461   6.59404
O    -3.89176  -7.17207   5.46308
O    -5.89667  -4.99209   5.61583
O    -6.11056  -6.11145   3.68595
H    -6.91282  -6.48004   4.09187
N    -1.89445  -0.63532   0.33639
N     0.42611  -1.42558   1.37092
N    -4.26096  -3.79949   3.06927
N    -1.82815  -4.71800   4.04246
C    -3.03144  -0.20973  -0.20197
H    -2.93673   0.58714  -0.93199
C    -4.26813  -0.74601   0.14407
H    -5.16056  -0.36322  -0.32402
C    -4.33892  -1.75882   1.08138
H    -5.27365  -2.20335   1.38292
C    -3.15078  -2.21972   1.65638
C    -1.93940  -1.62778   1.25343
C    -0.68704  -2.05620   1.80892
C    -0.63511  -3.08947   2.76152
C     0.61205  -3.47004   3.26346
H     0.66359  -4.26162   3.99373
C     1.73622  -2.81149   2.80145
H     2.71739  -3.07371   3.16289
C     1.60451  -1.79690   1.85874
H     2.46353  -1.25742   1.47420
C    -1.87218  -3.70858   3.17411
C    -3.10985  -3.26641   2.64714
C    -4.20592  -4.76566   3.95843
C    -2.96633  -5.25528   4.42669
C    -2.95077  -6.42904   5.34661
C    -5.49164  -5.30084   4.53065
O    -0.45990   1.13307  -1.10776
