40

Au    0.00000   0.00000   0.00000
S     4.88440   0.25479  -0.41205
P     2.06574  -0.84331   0.21585
N     1.91146  -0.08288  -2.95360
N     0.26744   0.22457  -4.39614
C     2.23712  -2.64845   0.15649
C     3.17659  -3.31067  -0.62565
H     3.86482  -2.74741  -1.24203
C     3.22224  -4.69363  -0.61057
H     3.95096  -5.21121  -1.21656
C     2.33665  -5.41191   0.17613
H     2.37674  -6.49065   0.18185
C     1.39500  -4.75147   0.95110
H     0.70164  -5.31345   1.55826
C     1.34014  -3.37118   0.93887
H     0.60456  -2.83630   1.52716
C     2.83906  -0.43143   1.80393
C     2.38997   0.70482   2.46895
H     1.57858   1.28259   2.04330
C     2.97358   1.07805   3.66559
H     2.62502   1.95986   4.18157
C     3.99874   0.31551   4.20173
H     4.45134   0.60473   5.13826
C     4.44131  -0.82137   3.54372
H     5.23684  -1.41631   3.96705
C     3.86594  -1.19998   2.34520
H     4.20636  -2.08849   1.83139
C     1.02542  -1.12295  -2.78808
H     1.22165  -1.93994  -2.12114
C     0.02974  -0.91608  -3.69612
H    -0.84367  -1.50655  -3.88254
C     1.38599   0.69850  -3.94394
H     1.84613   1.60825  -4.27274
C     3.08433   0.14510  -2.25406
C     4.21706   0.77118  -2.83444
H     4.25158   1.09996  -3.85701
C     5.24743   0.89206  -1.96108
H     6.21546   1.31638  -2.13903
C     3.28955  -0.21151  -0.93676
O    -1.51873   0.64106  -0.07059
