53

C    -0.54281  -2.49727   1.72256
C    -1.46612  -3.00001   0.79078
C    -2.25682  -4.09948   1.06166
H    -2.96323  -4.43667   0.31892
C    -2.13764  -4.75555   2.27438
H    -2.75127  -5.61627   2.48738
C    -1.21976  -4.29437   3.20736
H    -1.11722  -4.80128   4.15548
C    -0.43851  -3.19125   2.94084
H     0.26692  -2.82996   3.67561
C    -0.24343  -2.99704  -1.64744
C    -0.43764  -4.26127  -2.17100
H    -1.38878  -4.74893  -2.02467
C     0.57726  -4.88944  -2.87064
H     0.42823  -5.88053  -3.26826
C     1.77877  -4.22415  -3.06586
H     2.57250  -4.69837  -3.62363
C     1.96993  -2.95700  -2.55937
H     2.90695  -2.44246  -2.72066
C     0.96805  -2.30549  -1.81973
C     1.48429   1.45667   3.25653
C     0.53176   3.22108   1.66471
H    -0.36339   3.33549   2.27313
H     0.23360   3.22313   0.61822
H     1.17074   4.08872   1.84034
C     1.94271   1.10414   1.01759
C     2.66595   0.10493   1.83435
C     2.35154   0.29522   3.14351
C     1.26043   1.96268   2.01685
C     2.76087   1.80957  -0.04871
H     3.18499   1.09908  -0.75572
H     3.58344   2.34458   0.42985
H     2.16086   2.52953  -0.59898
C     3.55769  -0.93376   1.23359
H     3.92667  -1.61617   1.99437
H     4.41950  -0.46765   0.75546
H     3.01916  -1.51318   0.48210
C     2.78044  -0.49984   4.33188
H     3.26780  -1.42597   4.03793
H     1.92026  -0.73958   4.95637
H     3.47819   0.07507   4.94133
C     0.95994   1.95363   4.56130
H     1.77751   2.12637   5.26045
H     0.28896   1.21776   5.00638
H     0.41299   2.88249   4.43033
Ta    0.00000   0.00000   0.00000
Cl   -0.18687   1.61246  -1.58521
S    -1.60408  -2.18777  -0.79925
N     0.19546  -1.39135   1.44215
H     0.82669  -1.21662   2.21937
N     1.13132  -1.05963  -1.29340
H     1.96552  -0.63248  -1.68171
O    -1.30821   0.60532   0.80291
