49

Pd    0.00000   0.00000   0.00000
P    -0.98766   1.92114   0.31310
O     0.48659  -2.18248   0.08869
C    -1.69967  -0.71554   0.72825
C    -2.80801   0.06624   1.06277
C    -3.93361  -0.51249   1.63021
H    -4.78656   0.10081   1.88771
C    -3.96701  -1.87716   1.86571
H    -4.84191  -2.32748   2.31050
C    -2.88407  -2.66527   1.52371
H    -2.91321  -3.73235   1.69700
C    -1.75073  -2.09179   0.95683
C    -0.58571  -2.97302   0.56979
H    -0.24443  -3.56441   1.43760
H    -0.89986  -3.68328  -0.21565
C    -2.75131   1.53547   0.73633
H    -3.12741   2.15838   1.55178
H    -3.37827   1.72902  -0.13888
C    -1.07142   2.97849  -1.23758
C    -1.38400   1.94277  -2.32556
H    -1.38650   2.41205  -3.30780
H    -2.35665   1.47512  -2.16699
H    -0.61268   1.15625  -2.31936
C    -2.14006   4.06831  -1.19667
H    -2.12248   4.62199  -2.13454
H    -1.95603   4.77093  -0.38824
H    -3.13833   3.65543  -1.07339
C     0.30266   3.58296  -1.51528
H     0.34723   3.94533  -2.54125
H     1.07752   2.82619  -1.38701
H     0.50485   4.42275  -0.85497
C    -0.28215   2.73352   1.85574
C    -0.96839   4.03770   2.24818
H    -0.59620   4.36744   3.21728
H    -2.04726   3.91979   2.32524
H    -0.75390   4.82104   1.52509
C     1.21872   2.94472   1.65791
H     1.69735   3.12820   2.61885
H     1.42836   3.79104   1.01136
H     1.66609   2.05042   1.21382
C    -0.46484   1.66185   2.93735
H     0.01189   1.97947   3.86348
H     0.00988   0.72449   2.60621
H    -1.51448   1.46329   3.14494
C     1.58474  -2.92973  -0.37621
H     2.00928  -3.54054   0.43073
H     2.32933  -2.21132  -0.72260
H     1.29119  -3.58459  -1.20674
O     1.48168   0.34048  -0.64125
