70

Ir    0.00000   0.00000   0.00000
P    -1.78518   0.92446   1.22232
C    -2.81338   2.02559   0.13251
H    -3.34103   2.75705   0.75232
C    -1.82244   2.74717  -0.78579
H    -1.07819   3.27123  -0.18400
H    -1.29049   1.99447  -1.38511
C    -2.54007   3.71185  -1.72252
H    -1.81517   4.20795  -2.37221
H    -3.04984   4.47931  -1.13358
C    -3.56248   2.95458  -2.56340
H    -3.04663   2.22468  -3.19083
H    -4.09526   3.64564  -3.22004
C    -4.55075   2.23073  -1.65581
H    -5.09882   2.96745  -1.06092
H    -5.27579   1.68048  -2.25911
C    -3.82851   1.26327  -0.71966
H    -3.31643   0.49811  -1.30672
H    -4.56925   0.76676  -0.09065
C    -2.99402  -0.29755   1.92799
H    -3.41881  -0.79211   1.04567
C    -4.10602   0.34792   2.74809
H    -3.67925   0.82446   3.63361
H    -4.61261   1.12268   2.16960
C    -5.11522  -0.71626   3.17468
H    -5.57716  -1.15507   2.28645
H    -5.90729  -0.25674   3.77063
C    -4.42919  -1.81588   3.97962
H    -5.15634  -2.58161   4.25808
H    -4.02257  -1.38894   4.89979
C    -3.29676  -2.44120   3.17045
H    -2.79598  -3.21023   3.76230
H    -3.70487  -2.91925   2.27722
C    -2.29094  -1.37020   2.75732
H    -1.48573  -1.82302   2.17071
H    -1.85800  -0.92442   3.65631
C    -1.28944   1.83955   2.73524
C    -1.73849   3.04641   3.27459
C    -1.27716   3.43898   4.52973
H    -1.63721   4.37278   4.93750
C    -0.37455   2.67888   5.24549
H    -0.03928   3.00777   6.21784
C     0.12024   1.51102   4.68949
H     0.85766   0.92216   5.21440
C    -0.33462   1.10978   3.45107
H     0.07359   0.21132   2.99922
C    -2.60449   4.03138   2.58225
C    -3.96397   4.15211   2.88327
C    -4.72372   5.13634   2.25843
H    -5.77855   5.23343   2.45642
C    -4.11327   6.01592   1.38366
H    -4.70653   6.78036   0.90466
C    -2.75680   5.94909   1.12247
H    -2.30695   6.66892   0.45853
C    -1.99327   4.95919   1.73091
O    -4.44592   3.25910   3.79326
C    -5.80851   3.31388   4.13518
H    -6.07422   4.27659   4.58324
H    -5.95763   2.52323   4.86869
H    -6.45117   3.12662   3.26863
O    -0.64985   4.79992   1.57189
C     0.05273   5.72157   0.77352
H    -0.29789   5.70910  -0.26356
H     1.09159   5.39755   0.80544
H    -0.02453   6.73773   1.17266
C     1.23561  -0.93379  -1.05995
O     1.88614  -1.59274  -1.73306
C     1.18809   1.27217   0.64398
O     1.89470   2.09831   1.02654
O    -1.11050  -1.06550  -0.59497
