67

W     0.00000   0.00000   0.00000
Si   -0.75418   0.42551   3.12157
Cl    0.98586   1.91130  -1.10254
O    -1.51112   0.89934   0.01027
O     1.41920  -0.82111  -0.61914
C    -2.53255   1.50612  -0.73829
C    -3.89725   1.04575  -0.21195
H    -3.99299   1.30898   0.83962
H    -3.98488  -0.03511  -0.30691
H    -4.69549   1.52066  -0.77549
C    -2.39568   3.03134  -0.63581
H    -1.38536   3.33071  -0.91362
H    -2.58313   3.35348   0.38522
H    -3.10597   3.51667  -1.29941
C    -2.33341   1.05441  -2.19932
H    -1.31945   1.31042  -2.52338
H    -3.04219   1.55470  -2.85416
H    -2.48243  -0.02390  -2.28197
C     2.30729  -1.37483  -1.54555
C     3.66581  -0.67780  -1.38579
H     3.53656   0.39681  -1.51483
H     4.37468  -1.04612  -2.12157
H     4.05580  -0.86216  -0.38604
C     1.71178  -1.10861  -2.93938
H     1.62120  -0.03190  -3.09464
H     0.72274  -1.56731  -3.00429
H     2.34624  -1.52491  -3.71693
C     2.40829  -2.88175  -1.26935
H     1.41228  -3.32286  -1.30969
H     2.81787  -3.04476  -0.27392
H     3.04652  -3.36412  -2.00390
C     0.35465  -0.42583   1.90235
C    -0.15285   0.41476   4.92168
C     0.52585   1.49775   5.46890
H     0.70679   2.36979   4.85586
C     0.96414   1.47932   6.78087
H     1.48738   2.33310   7.18837
C     0.73157   0.36786   7.57301
H     1.07098   0.35102   8.59879
C     0.05983  -0.72163   7.04379
H    -0.12639  -1.59182   7.65782
C    -0.37481  -0.69391   5.73138
H    -0.90386  -1.54311   5.32281
C    -0.84529   2.26426   2.60794
C    -1.89758   3.09911   2.96997
H    -2.73002   2.68927   3.52431
C    -1.89671   4.44193   2.63078
H    -2.72414   5.07372   2.92253
C    -0.83644   4.97664   1.91690
H    -0.83451   6.02339   1.65038
C     0.22303   4.16296   1.55108
H     1.05583   4.57186   0.99768
C     0.21620   2.82191   1.89903
H     1.07981   2.19886   1.65683
C    -2.52846  -0.26787   3.18097
C    -2.98183  -1.09855   2.16350
H    -2.30474  -1.33015   1.34309
C    -4.25818  -1.63269   2.18684
H    -4.58772  -2.28243   1.38862
C    -5.11028  -1.33706   3.23789
H    -6.10849  -1.74993   3.26073
C    -4.67425  -0.51507   4.26388
H    -5.33330  -0.28669   5.08974
C    -3.39368   0.00827   4.23603
H    -3.05154   0.63137   5.05049
H     1.16953  -1.02226   2.31800
O    -0.80960  -1.29049  -0.63380
