68

C    -0.60244   2.96785   0.87944
H     0.24231   2.27412   0.84351
C    -0.44146   4.27225   0.44361
H     0.50820   4.57769   0.03250
C    -1.48003   5.18321   0.54214
H    -1.34648   6.19605   0.19381
C    -2.68813   4.79689   1.10019
H    -3.49621   5.50704   1.19041
C    -2.86702   3.49870   1.53856
H    -3.80268   3.17906   1.97018
C    -1.82739   2.58141   1.41784
C    -2.15558  -0.90834   1.90431
C    -1.45861   0.14576   1.30515
C    -1.98070  -2.32474   1.61934
C    -3.06148  -3.20373   1.55206
H    -4.06436  -2.85044   1.73663
C    -2.86504  -4.52587   1.19825
H    -3.71192  -5.19436   1.14517
C    -1.59392  -4.99170   0.90754
H    -1.44658  -6.02526   0.63235
C    -0.51375  -4.12614   0.97143
H     0.48066  -4.48401   0.74976
C    -0.69818  -2.79893   1.31786
H     0.16629  -2.13771   1.40202
C    -4.01127  -0.95682   3.61376
H    -4.17765  -0.27766   4.44879
H    -3.60312  -1.89989   3.97317
H    -4.96472  -1.13561   3.11281
C    -3.09440  -0.31228  -1.34904
C    -3.80935   0.76406  -0.82568
H    -3.35881   1.74931  -0.82586
C    -5.07949   0.57880  -0.31602
H    -5.62534   1.41895   0.08861
C    -5.65129  -0.68482  -0.32243
H    -6.64509  -0.82964   0.07612
C    -4.94820  -1.75795  -0.84402
H    -5.39315  -2.74235  -0.85566
C    -3.67130  -1.57714  -1.34644
H    -3.11769  -2.41877  -1.73971
C    -0.99064  -1.40447  -2.93959
C    -0.47362  -2.56762  -2.37358
H    -0.27156  -2.58694  -1.30353
C    -0.18887  -3.65741  -3.17243
H     0.21562  -4.55821  -2.73489
C    -0.40742  -3.58472  -4.53988
H    -0.17502  -4.43168  -5.16867
C    -0.90487  -2.42246  -5.10497
H    -1.05685  -2.36390  -6.17299
C    -1.20048  -1.32836  -4.30951
H    -1.57260  -0.41653  -4.75410
C    -1.37652   1.49417  -2.70392
C    -2.40628   1.80692  -3.58816
H    -3.21656   1.10624  -3.74249
C    -2.39623   3.02052  -4.25028
H    -3.19217   3.26286  -4.93966
C    -1.36974   3.92598  -4.02970
H    -1.36794   4.87188  -4.55122
C    -0.35100   3.62136  -3.14204
H     0.44616   4.32947  -2.97195
C    -0.35286   2.40875  -2.47623
H     0.44887   2.14722  -1.78860
Cl    1.66091  -0.21871  -1.55146
N    -2.05775   1.25003   1.80945
N    -3.02880   0.96613   2.66092
N    -3.07996  -0.33909   2.71494
P    -1.33973  -0.06130  -1.77546
Pd    0.00000   0.00000   0.00000
O     1.05053   0.08874   1.26926
