40

C    -0.89914  -1.07172   1.33533
C    -0.40007  -1.51237   2.56472
C    -3.13985  -1.23775   0.34216
C    -4.47778  -1.12032   0.69854
H    -4.76048  -1.24604   1.73177
C    -5.41800  -0.82536  -0.27079
H    -6.45636  -0.72336   0.00567
C    -5.02714  -0.64685  -1.58749
H    -5.76174  -0.40284  -2.33987
C    -3.69432  -0.78425  -1.94099
H    -3.39306  -0.65863  -2.96991
C    -2.74016  -1.08657  -0.98479
H    -1.69428  -1.23652  -1.28284
C     0.96737  -1.34531   3.03393
C     1.65580  -0.17923   2.67616
H     1.13650   0.62677   2.14315
C     2.98132  -0.02206   3.03548
H     3.50690   0.87911   2.75670
C     3.63730  -1.01353   3.74832
H     4.67474  -0.88924   4.02045
C     2.96172  -2.16822   4.10255
H     3.47189  -2.94899   4.64713
C     1.63579  -2.33783   3.74805
H     1.13827  -3.26442   3.99042
C    -1.47821  -2.72501   4.49375
H    -2.50315  -2.66181   4.85607
H    -0.80818  -2.18691   5.16254
H    -1.18633  -3.77604   4.45271
C     1.73089   1.38668  -2.11381
C     2.67130   1.82123  -3.10081
H     3.30788   2.60071  -2.68241
H     2.13962   2.21458  -3.96712
H     3.28712   0.97493  -3.40575
Cl    1.28483  -1.82414  -0.56194
N    -2.18678  -1.48738   1.34589
N    -2.51547  -2.11715   2.45724
N    -1.42923  -2.13581   3.18711
N     0.96801   1.05101  -1.32491
Pd    0.00000   0.00000   0.00000
O    -0.97062   1.25098   0.46414
