66

Ru    0.00000   0.00000   0.00000
N     0.73717  -0.85909  -1.66666
O    -1.78885   3.60344  -0.52222
C     1.07652  -2.61573  -3.00223
H     0.97622  -3.63049  -3.32833
O    -2.51550   2.55537   2.03895
C     1.75692  -1.55183  -3.53176
H     2.35110  -1.53988  -4.42135
N     0.45453  -2.16183  -1.87772
O     1.02529   2.12708   3.21174
H     1.22521   2.05859   2.26167
N     0.58831  -2.81916   0.36004
C     1.51918  -0.47777  -2.66089
H     1.90362   0.52235  -2.70187
N     0.89973  -1.59094   0.84065
C    -0.21423  -2.90760  -0.83587
H    -0.30157  -3.95851  -1.13875
N    -1.52268  -2.36459  -0.61182
C     1.93925  -1.75431   1.63843
H     2.40262  -0.91450   2.11871
N    -1.64088  -1.06854  -0.26529
C     2.31625  -3.10659   1.68247
H     3.11539  -3.53149   2.25280
N    -0.80465   1.64889  -0.89747
C     1.45418  -3.75818   0.84574
H     1.36676  -4.79043   0.57499
N    -0.91829   0.93435   1.64919
C    -2.93857  -0.80989  -0.22491
H    -3.30232   0.16363   0.04292
C    -3.67373  -1.95988  -0.55420
H    -4.73898  -2.04973  -0.59747
C    -2.74761  -2.93592  -0.80312
H    -2.85225  -3.96339  -1.08385
C    -1.43538   2.40656  -0.07873
C    -1.24222   3.74419  -1.83256
H    -0.50066   4.54707  -1.80848
H    -2.04975   4.02217  -2.51247
C    -0.61146   2.36837  -2.14841
H     0.46670   2.46655  -2.32526
C    -1.23264   1.61487  -3.34107
H    -0.77234   0.62006  -3.35090
C    -2.74109   1.42928  -3.19410
H    -3.11231   0.77947  -3.98377
H    -3.26950   2.37681  -3.26415
H    -2.97437   0.97103  -2.23545
C    -0.88733   2.31824  -4.65081
H    -1.28287   1.75585  -5.49322
H     0.19029   2.40202  -4.76970
H    -1.31301   3.31836  -4.67848
C    -1.69269   1.97231   1.34076
C    -0.89744   0.60067   3.06539
H    -1.60261   1.28509   3.55683
C     0.50824   0.90225   3.64031
H     0.44017   0.97076   4.72888
H     1.19224   0.08410   3.38260
C    -1.36210  -0.84928   3.30687
H    -0.92353  -1.47292   2.51584
C    -0.92967  -1.40737   4.66124
H    -1.37458  -2.39017   4.80991
H    -1.26879  -0.75594   5.46257
H     0.14945  -1.50970   4.72932
C    -2.88520  -0.92054   3.20207
H    -3.22586  -1.95490   3.17276
H    -3.23132  -0.41413   2.30667
H    -3.33798  -0.43074   4.06078
O     1.38003   0.88896   0.16667
