33

Au    0.00000   0.00000   0.00000
N    -2.09070  -1.97313   0.92691
N    -0.30874  -2.12323   2.11062
C    -0.85130  -1.47046   1.06840
C    -2.32449  -2.92949   1.87687
H    -3.24789  -3.46428   1.94995
C    -1.20110  -3.02172   2.62624
H    -0.97099  -3.64039   3.46859
C    -3.04146  -1.55756  -0.08489
H    -2.52257  -0.80102  -0.68567
C    -3.41720  -2.73810  -0.97658
H    -2.52303  -3.19290  -1.39663
H    -4.04406  -2.39328  -1.79346
H    -3.96503  -3.49357  -0.41756
C    -4.26533  -0.92524   0.57274
H    -4.80482  -1.65283   1.17526
H    -4.93647  -0.54515  -0.19177
H    -3.96448  -0.09726   1.21053
C     0.99900  -1.87393   2.66831
H     1.55988  -1.28564   1.93598
H     1.50560  -2.82972   2.82950
C     0.87781  -1.11370   3.96693
C     0.40665   0.19349   3.95243
H     0.16389   0.65907   3.00726
C     0.25987   0.89444   5.13518
H    -0.10320   1.91084   5.11461
C     0.58311   0.29545   6.34196
H     0.47099   0.84364   7.26527
C     1.05411  -1.00567   6.36181
H     1.31052  -1.47524   7.29985
C     1.19703  -1.70980   5.17814
H     1.56809  -2.72515   5.19808
O     0.69369   1.22439  -0.86149
