37

Au    0.00000   0.00000   0.00000
O     1.44859  -3.80674  -1.99195
N     1.33625  -2.07810   1.77441
N     2.21659  -1.99035  -0.17847
C     1.26647  -1.43620   0.59780
C     2.31274  -3.03621   1.73344
H     2.54094  -3.67145   2.56297
C     2.86415  -2.98546   0.49792
H     3.64419  -3.56947   0.05637
C     0.48711  -1.80231   2.91559
H    -0.16417  -0.97587   2.60736
C     1.33025  -1.36268   4.10987
H     1.97367  -2.16979   4.45247
H     0.67929  -1.07109   4.92884
H     1.94995  -0.51015   3.84167
C    -0.36869  -3.02436   3.23919
H    -0.93376  -3.33013   2.36190
H    -1.06833  -2.78222   4.03380
H     0.24919  -3.85804   3.56475
C     2.40913  -1.67394  -1.56264
H     3.47675  -1.66004  -1.80214
H     1.98104  -0.68714  -1.74897
C     1.72763  -2.72873  -2.44695
C     1.39371  -2.30356  -3.86609
C     1.28466  -3.55307  -4.74464
H     2.25868  -4.02438  -4.85781
H     0.90849  -3.28898  -5.72918
H     0.60819  -4.27268  -4.29159
C     2.42131  -1.33883  -4.45960
H     2.42562  -0.38144  -3.94637
H     2.17238  -1.15353  -5.50182
H     3.42210  -1.76456  -4.42379
C     0.01778  -1.62055  -3.77417
H    -0.72147  -2.30799  -3.36987
H    -0.30082  -1.31667  -4.76814
H     0.04477  -0.73698  -3.13997
O    -1.01500   1.16212  -0.58460
