35

Au    0.00000   0.00000   0.00000
Br    1.12371   0.04251  -2.18387
Br   -0.90990  -2.20856  -0.33109
N     0.17303   3.00324  -0.06355
N     1.96251   2.15168   0.78454
C     0.76739   1.85371   0.26888
C     1.00289   4.04292   0.25004
H     0.74000   5.06437   0.07518
C     2.12779   3.50818   0.78352
H     3.01502   3.97091   1.16215
C     2.94581   1.21174   1.27766
H     3.79544   1.19461   0.58708
H     2.49048   0.21584   1.28462
C     3.39409   1.59456   2.66603
C     4.71094   1.95954   2.90752
H     5.42824   1.95292   2.09897
C     5.10977   2.32114   4.18285
H     6.13724   2.59843   4.36417
C     4.19317   2.32750   5.22019
H     4.50515   2.60995   6.21420
C     2.87697   1.96785   4.98203
H     2.15885   1.96691   5.78736
C     2.47638   1.60145   3.70983
H     1.44979   1.31573   3.53262
C    -1.14147   3.12834  -0.67234
H    -1.53367   2.10889  -0.77730
C    -2.06638   3.91903   0.24667
H    -2.10768   3.45705   1.23095
H    -3.06914   3.92897  -0.17024
H    -1.72631   4.94608   0.35256
C    -1.00894   3.74955  -2.05901
H    -0.64313   4.77122  -1.99427
H    -1.97930   3.76029  -2.54652
H    -0.32262   3.16774  -2.67108
O    -0.70682   0.18230   1.47975
