66

Re    0.00000   0.00000   0.00000
Br   -1.09278   0.48623   2.15259
P     0.23470  -2.42727   0.69350
N     1.34754  -0.32353  -1.81464
N     0.97186  -0.27796  -3.08996
O    -1.38735  -0.44834  -0.79343
O     1.64159   0.27232   0.72026
C     2.91081  -0.00799   0.65480
C     3.72518   0.10251   1.82368
C     5.07328  -0.32129   1.76723
C     5.59007  -0.80768   0.54550
H     6.61617  -1.14281   0.51218
C     4.82166  -0.83227  -0.58052
H     5.23841  -1.18717  -1.51105
C     3.47181  -0.42664  -0.55941
C     2.68481  -0.40060  -1.78073
C     3.16180  -0.41663  -3.10489
H     4.18091  -0.45270  -3.42684
C     2.04144  -0.33236  -3.89600
H     1.94432  -0.30372  -4.96233
C    -0.40342  -0.17047  -3.47764
H    -0.46851  -0.17641  -4.56285
H    -0.83150   0.75811  -3.08872
H    -0.97511  -1.00449  -3.06364
C     3.20321   0.62156   3.02203
H     2.17557   0.95584   3.04758
C     3.99498   0.71687   4.13414
H     3.59632   1.12997   5.04823
C     5.32486   0.27827   4.09189
H     5.93562   0.35211   4.97993
C     5.85256  -0.23165   2.93623
H     6.88096  -0.56180   2.89926
C    -1.21744  -3.08583   1.56185
C    -2.47585  -2.57517   1.25546
H    -2.56711  -1.77917   0.52605
C    -3.59617  -3.07499   1.89323
H    -4.56935  -2.66973   1.66283
C    -3.46551  -4.08461   2.83296
H    -4.33964  -4.46954   3.33638
C    -2.21433  -4.59916   3.13295
H    -2.11364  -5.38658   3.86524
C    -1.08811  -4.10454   2.50133
H    -0.11142  -4.50326   2.73863
C     0.43150  -3.53322  -0.73394
C    -0.60734  -4.37118  -1.13167
H    -1.50676  -4.43209  -0.53658
C    -0.48972  -5.12399  -2.28624
H    -1.29956  -5.77283  -2.58482
C     0.65593  -5.04401  -3.06063
H     0.74194  -5.62931  -3.96370
C     1.68995  -4.20558  -2.67606
H     2.58432  -4.13402  -3.27792
C     1.57793  -3.45076  -1.52375
H     2.38323  -2.78958  -1.23865
C     1.60172  -2.72134   1.84821
C     2.75346  -3.43760   1.54271
H     2.85423  -3.93490   0.58955
C     3.77063  -3.53355   2.47594
H     4.66602  -4.08555   2.23103
C     3.64372  -2.93056   3.71573
H     4.44351  -3.00557   4.43669
C     2.48823  -2.23327   4.03076
H     2.37938  -1.77103   4.99978
C     1.47327  -2.11938   3.10088
H     0.57527  -1.56475   3.34172
O    -0.09273   1.57921  -0.46904
