59

Pd    0.00000   0.00000   0.00000
P     1.96923  -0.53445   0.86084
P    -0.56030   1.73902   1.26060
Cl   -2.07456   0.45742  -0.83993
C     3.43026  -0.17077  -0.14146
C     3.20004   0.39102  -1.39386
H     2.17291   0.53746  -1.72512
C     4.26387   0.73077  -2.20904
H     4.08327   1.16237  -3.18206
C     5.56188   0.51253  -1.77661
H     6.39487   0.77172  -2.41321
C     5.79597  -0.03585  -0.52537
H     6.80945  -0.19987  -0.18861
C     4.73598  -0.37194   0.29692
H     4.92772  -0.78377   1.27855
C     1.93041  -2.28607   1.33218
C     2.99436  -3.17441   1.27706
H     3.95940  -2.84793   0.91921
C     2.80078  -4.49508   1.64803
H     3.62531  -5.19102   1.59542
C     1.55607  -4.92879   2.07017
H     1.41190  -5.96172   2.35026
C     0.48606  -4.04648   2.11027
H    -0.49049  -4.39326   2.41460
C     0.67064  -2.73034   1.73765
H    -0.17771  -2.03201   1.71463
C    -2.20911   1.74821   2.00713
C    -2.50386   0.63736   2.79500
H    -1.74698  -0.13226   2.92732
C    -3.75254   0.50317   3.36810
H    -3.98189  -0.36057   3.97497
C    -4.71739   1.47420   3.14669
H    -5.69745   1.36929   3.58800
C    -4.43527   2.56429   2.34083
H    -5.19810   3.30476   2.14940
C    -3.18491   2.70435   1.76327
H    -2.97731   3.53635   1.10662
C    -0.33591   3.25042   0.28805
C    -0.55688   4.52386   0.80554
H    -0.91136   4.64390   1.82084
C    -0.32552   5.63660   0.01762
H    -0.50554   6.62445   0.41655
C     0.13683   5.48714  -1.28058
H     0.31529   6.36014  -1.89076
C     0.36817   4.22211  -1.79627
H     0.72778   4.10828  -2.80801
C     0.13224   3.10515  -1.01539
H     0.28715   2.09882  -1.42194
C     2.34852   0.30426   2.48414
H     1.77135  -0.20091   3.26394
H     3.41279   0.20438   2.70433
C     1.94620   1.74160   2.34594
C     0.53930   2.07012   2.73651
H     0.43806   3.11962   3.01983
H     0.19630   1.44244   3.56327
C     2.75082   2.64266   1.79502
H     3.75042   2.39297   1.48215
H     2.44635   3.66667   1.66127
O     0.36384  -1.21700  -1.05311
