36

C     0.60011   1.52603   3.43912
H     0.22310   1.37264   4.43464
C     1.25428   0.61946   2.67065
H     1.56654  -0.37329   2.95518
C     1.53857   1.22417   1.36554
H     2.52269   1.06111   0.93163
C     1.06197   2.59644   1.49025
H     1.15640   3.34041   0.71733
C     0.48071   2.75194   2.70656
H    -0.00091   3.63812   3.07910
C    -3.12171  -1.50263  -1.09966
H    -2.80227  -2.43641  -0.64165
H    -3.92557  -1.71412  -1.81631
H    -3.50136  -0.84689  -0.31724
C    -1.36598  -1.77113  -2.70836
H    -0.98503  -2.64778  -2.18617
H    -0.53423  -1.26675  -3.19916
H    -2.08592  -2.09509  -3.47125
C    -2.37974   0.38490  -2.38389
H    -2.98949   0.19477  -3.28025
H    -2.98774   0.94577  -1.66540
C    -1.19199   2.02121  -3.87137
H    -2.05512   2.01168  -4.52219
C    -1.17863   1.22745  -2.73139
C    -0.08128   1.21813  -1.86940
C     1.00402   2.02137  -2.20791
H     1.88416   2.01739  -1.57759
C     0.99586   2.82263  -3.33897
H     1.85305   3.43740  -3.57050
C    -0.10666   2.82308  -4.17473
H    -0.11799   3.43686  -5.06283
Cl    1.80647  -1.06174  -0.94262
Cl   -1.75531   1.19473   0.83672
N    -1.98150  -0.86748  -1.74361
Ta    0.00000   0.00000   0.00000
O    -0.48621  -1.40957   0.70655
