58

Pd    0.00000   0.00000   0.00000
Br   -1.87663  -0.04440   1.58453
S     0.68971  -4.18660   0.77575
Cl    4.10947   2.29977   3.29002
Cl    3.48040  -0.99686   4.37671
Cl   -2.77218  -3.49709  -3.51957
Cl   -4.36242  -0.33334  -3.71160
N     2.10346   1.42224   1.68162
N     1.71143  -0.59520   2.35440
N    -2.30929   0.02886  -1.98931
N    -1.31777  -1.88690  -1.88695
C     1.32860   0.34609   1.46097
C     2.97436   1.16865   2.71414
C     2.73031  -0.10533   3.13569
C     2.10498   2.61591   0.86447
H     2.71823   2.43040  -0.02595
H     2.57426   3.41585   1.44671
C     0.71919   3.05141   0.44996
C     0.52341   3.60658  -0.81238
H     1.33048   3.60184  -1.53063
C    -0.68657   4.19717  -1.13644
H    -0.81810   4.65071  -2.10694
C    -1.72287   4.20766  -0.21720
H    -2.66535   4.66848  -0.47217
C    -1.55031   3.62225   1.02693
H    -2.35899   3.61134   1.74182
C    -0.33158   3.05845   1.36734
H    -0.18947   2.65326   2.36065
C     1.19778  -1.94860   2.38366
H     0.10189  -1.89981   2.38709
H     1.52590  -2.42844   3.30632
C     1.69914  -2.72018   1.15727
H     2.71489  -3.08236   1.30725
H     1.68330  -2.06830   0.27436
C    -1.27547  -0.61467  -1.42677
C    -3.00348  -0.82107  -2.81463
C    -2.38372  -2.03388  -2.74307
C    -2.61523   1.42577  -1.78657
H    -1.98938   1.76497  -0.94524
H    -3.66836   1.52395  -1.51052
C    -2.30113   2.22685  -3.02283
C    -1.03660   2.13248  -3.59030
H    -0.28988   1.49857  -3.13332
C    -0.72681   2.85435  -4.72758
H     0.25845   2.77319  -5.16111
C    -1.67805   3.68102  -5.30301
H    -1.43731   4.24706  -6.19056
C    -2.93785   3.78171  -4.73811
H    -3.68133   4.42572  -5.18401
C    -3.25104   3.05326  -3.60309
H    -4.23633   3.12953  -3.16599
C    -0.41135  -2.93732  -1.47358
H     0.61308  -2.54973  -1.54719
H    -0.51176  -3.77661  -2.16283
C    -0.72124  -3.37057  -0.03611
H    -1.54071  -4.08637  -0.00711
H    -0.99370  -2.49894   0.56932
O     1.23548   0.07222  -1.09127
