38

Pt    0.00000   0.00000   0.00000
O     1.52827   3.48758  -1.46742
O     1.88661  -0.70713  -2.78293
O     3.88045   0.29494  -3.11809
O    -3.14886  -0.25550   2.55185
O    -3.74409  -2.31819   3.32789
N     1.09650   1.35131  -1.09523
N    -1.45186  -0.69834   1.21589
C    -0.90482   1.66440   0.45919
C    -1.96864   1.62537   1.36678
C    -2.54375   2.81705   1.79631
C    -2.01992   4.01997   1.33251
C    -0.93165   4.07584   0.47330
C    -0.36452   2.87851   0.03701
C     0.75470   2.61442  -0.82649
C     2.39864   2.75767  -2.19023
C     2.13879   1.43452  -1.98466
C     2.75973   0.27627  -2.67757
C     2.30551  -1.91595  -3.40765
C    -2.22644   0.25370   1.72242
C    -2.93682  -1.59212   2.56082
C    -1.88869  -1.88671   1.73635
C    -3.48182  -3.72131   3.34696
C    -4.47786  -4.36413   4.29503
H    -3.37327   2.81158   2.48706
H    -2.46607   4.94392   1.66852
H    -0.52853   5.02580   0.15654
H     3.12117   3.26186  -2.79748
H     1.71649  -2.05243  -4.31475
H     2.11162  -2.72624  -2.70497
H     3.36748  -1.86136  -3.64927
H    -1.42094  -2.81797   1.48979
H    -2.45254  -3.89331   3.68401
H    -3.58948  -4.12402   2.33253
H    -4.36776  -3.94519   5.29109
H    -4.30241  -5.43465   4.33652
H    -5.49188  -4.18096   3.95148
O     0.79067  -1.44715  -0.05566
