67

Ni    0.00000   0.00000   0.00000
P     0.33709  -1.62126  -1.40391
P     0.38042   1.66105   1.34534
O     1.93029  -2.07110  -1.35322
O     1.98018   1.66504   1.77463
C     2.63199  -1.56601  -0.25013
C     2.65908   0.47946   1.46233
C     0.23220  -1.37010  -3.24264
H     0.73330  -2.22959  -3.70226
C    -1.20550  -1.25337  -3.73114
H    -1.74254  -2.19378  -3.64349
H    -1.21546  -0.95902  -4.77958
H    -1.73152  -0.49296  -3.15701
C     1.00058  -0.09619  -3.58301
H     0.54255   0.75118  -3.07278
H     0.96678   0.09322  -4.65446
H     2.04346  -0.17555  -3.28198
C    -0.50326  -3.24597  -1.03972
H    -0.03447  -3.57132  -0.10294
C    -1.98356  -3.01339  -0.75904
H    -2.10415  -2.16474  -0.08409
H    -2.42982  -3.89131  -0.29539
H    -2.53124  -2.79114  -1.67017
C    -0.24725  -4.32258  -2.08597
H    -0.76570  -4.10709  -3.01642
H    -0.59975  -5.28638  -1.72087
H     0.81900  -4.40319  -2.28893
C     0.29583   3.42784   0.77400
H     0.81828   4.02411   1.53066
C    -1.13715   3.91122   0.59442
H    -1.68479   3.21927  -0.04256
H    -1.13848   4.89021   0.11735
H    -1.65769   4.00220   1.54377
C     1.04586   3.52437  -0.55158
H     2.08621   3.22625  -0.43555
H     1.02215   4.54543  -0.92830
H     0.56670   2.87854  -1.28746
C    -0.43588   1.60387   3.02134
H     0.02371   0.72980   3.49875
C    -1.92492   1.31605   2.86644
H    -2.46272   2.18640   2.50206
H    -2.35984   1.01741   3.81861
H    -2.07420   0.50874   2.14791
C    -0.14169   2.81783   3.89259
H     0.92915   3.01068   3.91896
H    -0.48160   2.63502   4.91120
H    -0.64867   3.70589   3.52478
B     1.62960  -0.70220   0.81212
B     2.83023   0.12479  -0.19494
H     2.41084   0.83106  -1.03236
B     2.31305  -0.90745   2.41406
H     1.64581  -0.77898   3.37035
B     2.29525  -2.25376   1.28684
H     1.61371  -3.20719   1.33726
B     4.23325   0.47330   0.76872
H     4.78965   1.49478   0.62421
B     3.92504  -0.16697   2.38480
H     4.29872   0.42762   3.32351
B     3.73775  -1.94210   2.25960
H     4.06710  -2.66790   3.12138
B     3.89582  -2.38018   0.53194
H     4.24802  -3.41441   0.10690
B     4.21497  -0.90688  -0.38667
H     4.75733  -0.95267  -1.42473
B     4.92628  -1.09294   1.22662
H     6.08067  -1.23859   1.38235
O    -1.30332   0.65980  -0.76715
