58

Ni    0.00000   0.00000   0.00000
N    -1.33948  -1.47376  -0.59358
N    -1.19231   0.06537   1.55398
C     0.73375   0.17903  -1.66754
C     1.64822  -0.49731  -2.45453
H     2.25912  -1.28963  -2.04372
C     1.79012  -0.13409  -3.78881
H     2.50526  -0.65947  -4.40550
C     1.03689   0.89439  -4.32576
H     1.16172   1.17109  -5.36261
C     0.12622   1.57912  -3.53664
H    -0.46395   2.38836  -3.94468
C    -0.02411   1.22562  -2.20575
C    -0.98168   1.88829  -1.26894
C    -2.35192   1.59410  -1.33049
C    -3.21376   2.17533  -0.41184
H    -4.26793   1.93293  -0.45518
C    -2.75659   3.06086   0.55418
C    -1.40836   3.38155   0.57277
H    -1.04105   4.09371   1.29932
C    -0.50862   2.81571  -0.32446
C    -2.91502   0.70408  -2.40239
H    -3.72593   0.09004  -2.01045
H    -2.15335   0.05579  -2.82970
H    -3.32210   1.31870  -3.20693
C     0.91252   3.30072  -0.33250
H     1.29855   3.39116   0.68075
H     0.94816   4.28863  -0.79486
H     1.56618   2.63951  -0.89520
C    -3.71066   3.69711   1.52005
H    -4.10806   4.61911   1.09340
H    -3.21003   3.94795   2.45279
H    -4.54948   3.03684   1.73170
C    -1.27582  -2.34829  -1.58909
H    -0.42124  -2.26340  -2.24849
C    -2.23448  -3.31968  -1.80082
H    -2.13670  -4.00475  -2.62836
C    -3.32100  -3.40637  -0.93361
C    -3.37774  -2.49301   0.10826
H    -4.19139  -2.54200   0.81498
C    -2.37886  -1.53355   0.25250
C    -4.36868  -4.45418  -1.11902
H    -5.19337  -4.31549  -0.42459
H    -3.93778  -5.44139  -0.95452
H    -4.75370  -4.42794  -2.13719
C    -2.36470  -0.55567   1.35105
C    -3.47263  -0.29168   2.14897
H    -4.41764  -0.77170   1.94651
C    -3.37393   0.60661   3.20271
C    -2.13846   1.20901   3.41411
H    -1.99545   1.90179   4.22851
C    -1.08796   0.91738   2.56462
H    -0.11618   1.37023   2.71547
C    -4.53896   0.88898   4.09407
H    -4.51911   1.91951   4.44112
H    -4.49400   0.24042   4.96986
H    -5.48019   0.70064   3.58236
O     1.47505   0.04517   0.73803
