68

Ni    0.00000   0.00000   0.00000
Cl    1.11616  -1.70916   0.03550
N    -0.85186   1.56899   0.02887
N     0.83346   0.80896  -1.68760
N    -0.49546   0.02017   1.98908
C    -0.81561   2.35974  -1.04884
C    -1.55386   3.53617  -1.09546
C    -2.34334   3.90809  -0.01206
C    -2.34254   3.06533   1.09953
C    -1.58864   1.90181   1.09622
C     0.05911   1.83838  -2.09884
C     0.08687   2.29621  -3.40741
C     0.93050   1.70659  -4.34498
C     1.71971   0.65223  -3.89302
C     1.63739   0.23825  -2.57472
C    -1.48286   0.92377   2.17906
C    -2.32102   0.86889   3.28215
C    -2.16271  -0.12755   4.24164
C    -1.13679  -1.04285   4.02180
C    -0.33986  -0.93574   2.89505
C    -3.18007   5.17450   0.00607
C    -3.08347   5.95911  -1.30456
C    -2.69003   6.07608   1.14837
C    -4.64980   4.79271   0.23241
C     0.94637   2.21249  -5.77474
C    -0.45424   2.02691  -6.37543
C     1.95270   1.45916  -6.64735
C     1.32426   3.70085  -5.77342
C    -3.08940  -0.17939   5.44120
C    -2.97649   1.14177   6.21562
C    -4.52793  -0.37427   4.94171
C    -2.74606  -1.32792   6.39244
H    -1.49695   4.15025  -1.97701
H    -2.92221   3.31224   1.97354
H    -0.57107   3.10114  -3.69179
H     2.40061   0.13738  -4.54845
H     2.23690  -0.58649  -2.21102
H    -3.11059   1.59693   3.37352
H    -0.94263  -1.84706   4.71015
H     0.45561  -1.64506   2.70525
H    -2.06302   6.28444  -1.49499
H    -3.43503   5.36290  -2.14347
H    -3.70910   6.84655  -1.24003
H    -2.79092   5.58774   2.11375
H    -1.64284   6.33422   1.00419
H    -3.27111   6.99495   1.17034
H    -5.27278   5.68369   0.20601
H    -4.98674   4.11199  -0.54616
H    -4.79373   4.30784   1.19378
H    -1.20040   2.60163  -5.83361
H    -0.45972   2.35347  -7.41282
H    -0.74232   0.97865  -6.34130
H     1.70593   0.40189  -6.70479
H     1.92950   1.86355  -7.65693
H     2.96469   1.57072  -6.26460
H     2.30309   3.84185  -5.31946
H     1.36157   4.07413  -6.79413
H     0.60213   4.29662  -5.22175
H    -1.95167   1.30037   6.54523
H    -3.27465   1.99002   5.60537
H    -3.61923   1.11309   7.09233
H    -5.20818  -0.44587   5.78726
H    -4.84908   0.45376   4.31570
H    -4.60304  -1.28947   4.35890
H    -3.43401  -1.31715   7.23498
H    -2.84187  -2.28963   5.89458
H    -1.73609  -1.22534   6.78281
O    -1.38438  -0.63420  -0.63543
