49

Zn    0.00000   0.00000   0.00000
Cl    1.05467   1.38835  -1.38269
O     1.45933  -1.63681  -0.12872
H     1.37321  -2.11791  -0.98027
H     2.38136  -1.36923  -0.06992
O     1.22059  -2.83674  -2.53184
O     1.64491  -3.99533  -9.44161
N    -1.43826  -1.34333  -0.86257
N    -0.04831  -1.78376  -4.08905
H    -0.17698  -1.68619  -5.08563
N     1.09596  -3.13160  -6.05310
N     0.06881  -2.68589  -8.47300
H    -0.20459  -2.25569  -7.60260
N    -0.83337   0.17647  -9.71859
C    -2.10303  -2.02645   0.06508
H    -2.00322  -1.65956   1.07669
C    -2.86733  -3.13952  -0.23163
H    -3.38612  -3.66455   0.55355
C    -2.93795  -3.56176  -1.55037
H    -3.51746  -4.43071  -1.82384
C    -2.25273  -2.84324  -2.51302
H    -2.28460  -3.13630  -3.55113
C    -1.50731  -1.73101  -2.13366
C    -0.76576  -0.92711  -3.16959
H    -1.48038  -0.33195  -3.74209
H    -0.07080  -0.23997  -2.67119
C     0.90471  -2.63890  -3.69931
C     1.55628  -3.37030  -4.82804
C     2.60127  -4.25192  -4.56791
H     2.92057  -4.39891  -3.54852
C     3.19499  -4.90846  -5.63383
H     4.01077  -5.59664  -5.47102
C     2.72016  -4.66198  -6.91006
H     3.13385  -5.13641  -7.78577
C     1.66463  -3.76637  -7.07138
C     1.14318  -3.49549  -8.45315
C    -0.54035  -2.21767  -9.69865
H    -1.62476  -2.19134  -9.57340
H    -0.26410  -2.92816 -10.48152
C    -0.04196  -0.83561 -10.04591
C     1.20446  -0.65654 -10.63677
H     1.81758  -1.51220 -10.87372
C     1.62556   0.63454 -10.90756
H     2.58562   0.81290 -11.36979
C     0.79190   1.69269 -10.57898
H     1.08078   2.71295 -10.77675
C    -0.42636   1.40598  -9.98284
H    -1.11298   2.19319  -9.70012
O    -0.43171   0.19740   1.58024
