23

Ti    0.00000   0.00000   0.00000
C     1.81055  -0.30037  -1.35881
H     1.84265  -0.84979  -2.29240
C     1.59210   1.09261  -1.22078
H     1.42771   1.79375  -2.03063
C     1.75994   1.43460   0.14556
C     2.09827   0.24599   0.85449
C     2.11537  -0.83040  -0.07874
C     1.65823   2.81104   0.73145
H     2.64652   3.17697   1.01632
H     1.02642   2.80559   1.62234
H     1.22749   3.49813   0.00476
C     2.51958   0.17050   2.29142
H     3.59681   0.33561   2.36726
H     2.29185  -0.80729   2.71274
H     2.01360   0.92980   2.88548
C     2.45375  -2.25846   0.22855
H     2.23055  -2.89078  -0.62920
H     1.87690  -2.61638   1.08385
H     3.51428  -2.35500   0.46779
Cl   -0.92226  -1.72533  -0.89742
Cl   -1.42912   1.50518  -0.57039
O    -0.50770  -0.23725   1.55192
