35

Cl   -0.80801  -1.89523   0.74350
Zn    0.00000   0.00000   0.00000
N    -0.02419   0.68815  -1.99556
N     0.26573  -0.19172  -2.94682
N    -1.29968   1.40356   1.02538
N    -1.19224   2.68923   0.69829
C     0.73723   0.21214  -4.08767
C     0.97099   1.57421  -4.40398
C     1.49449   2.03272  -5.62581
C     1.68118   3.37589  -5.81808
C     1.35603   4.30039  -4.81117
C     0.84368   3.88130  -3.61273
C     0.64308   2.50643  -3.38713
C     0.14150   1.97113  -2.17876
C    -1.46046   3.61173   1.57272
C    -1.88141   3.34284   2.89888
C    -2.15373   4.32485   3.86708
C    -2.55889   3.94310   5.11876
C    -2.70753   2.58503   5.44576
C    -2.44994   1.60809   4.52124
C    -2.02835   1.97239   3.22925
C    -1.70800   1.04329   2.21240
H     0.95431  -0.56668  -4.80596
H     1.74395   1.31687  -6.39460
H     2.08483   3.73754  -6.75208
H     1.51868   5.35219  -4.99338
H     0.59554   4.58127  -2.82987
H    -0.11971   2.60668  -1.34364
H    -1.34163   4.63147   1.23112
H    -2.03667   5.36702   3.61008
H    -2.76798   4.68978   5.87035
H    -3.02686   2.31738   6.44178
H    -2.55595   0.56164   4.76221
H    -1.78199  -0.02240   2.38490
O     1.40683   0.73321   0.45356
