49

Zr    0.00000   0.00000   0.00000
Cl    1.08004   1.76140  -1.06721
C    -2.12654   0.23856   1.04886
C    -1.95921   1.46515   0.32604
C    -1.73280   2.78628   0.76615
H    -1.69225   3.00398   1.82705
C    -1.60647   3.78142  -0.17307
H    -1.43604   4.79847   0.14715
C    -1.69795   3.51253  -1.54760
H    -1.59615   4.32802  -2.24664
C    -1.90720   2.23462  -2.01482
H    -1.97486   2.03669  -3.07606
C    -2.02966   1.18747  -1.09299
C    -2.25542  -0.22764  -1.24605
C    -2.43804  -1.04392  -2.36924
H    -2.41996  -0.61581  -3.36221
C    -2.63331  -2.39434  -2.18768
H    -2.76771  -3.03593  -3.04453
C    -2.65683  -2.96148  -0.90422
H    -2.80832  -4.02650  -0.80937
C    -2.50386  -2.19461   0.22612
H    -2.56725  -2.63223   1.21569
C    -2.31101  -0.80408   0.08096
C    -2.21713   0.08695   2.52173
C    -3.43724   0.27383   3.21785
C    -4.63134   0.62888   2.55570
H    -4.61061   0.76013   1.48358
C    -5.78924   0.80404   3.25966
H    -6.70020   1.07728   2.74817
C    -5.80782   0.63087   4.65281
H    -6.73277   0.77319   5.19199
C    -4.66691   0.28569   5.32092
H    -4.67605   0.15097   6.39310
C    -3.45270   0.09862   4.62733
C    -2.25988  -0.25548   5.29267
H    -2.28535  -0.38851   6.36450
C    -1.09240  -0.42483   4.60256
H    -0.17818  -0.69049   5.11211
C    -1.06649  -0.25142   3.20668
C     0.17723  -0.39907   2.41420
C     1.08315   0.64730   2.09825
H     1.05352   1.65451   2.50116
C     2.13364   0.09084   1.32471
H     3.03062   0.61156   1.01163
C     1.86054  -1.27634   1.13043
H     2.51122  -1.99176   0.64256
C     0.63827  -1.58182   1.77936
H     0.21530  -2.57303   1.90146
O     0.40110  -1.08065  -1.18060
