39

Hg    0.00000   0.00000   0.00000
C    -0.93301  -1.13326   1.84277
N     0.01314  -2.59965   0.19717
C    -0.58707  -2.49055   1.38756
C    -0.86267  -3.63280   2.14510
C    -0.51817  -4.87437   1.65306
C     0.09776  -4.96611   0.41085
C     0.34278  -3.79266  -0.27645
Si    0.03162  -0.65054   3.43305
Si   -2.83635  -0.87418   1.80094
C    -0.81990  -1.18036   5.05976
C     0.26192   1.24177   3.49587
C     1.74097  -1.49010   3.31757
C    -3.80861  -2.01863   2.98398
C    -3.43052  -1.26576   0.02991
C    -3.21092   0.94195   2.23704
H    -1.33804  -3.52737   3.10529
H    -0.72401  -5.76530   2.22869
H     0.38146  -5.91889  -0.00591
H     0.82436  -3.79599  -1.24499
H    -1.77681  -0.68463   5.18460
H    -0.98767  -2.25098   5.11031
H    -0.20079  -0.91089   5.91000
H     0.69006   1.62821   2.57153
H    -0.67694   1.75623   3.66488
H     0.93441   1.51605   4.30196
H     1.66037  -2.56916   3.40296
H     2.21167  -1.27420   2.36108
H     2.41081  -1.14625   4.09899
H    -3.75630  -3.05464   2.66428
H    -3.44358  -1.96454   4.00334
H    -4.85728  -1.73692   2.99852
H    -2.93576  -0.63372  -0.70709
H    -3.21745  -2.29764  -0.23262
H    -4.49972  -1.11352  -0.07710
H    -3.06969   1.13567   3.29442
H    -2.57125   1.62435   1.68348
H    -4.23898   1.18762   1.99392
O     0.69351   0.63464  -1.35601
