42

Hg    0.00000   0.00000   0.00000
C    -0.99250  -1.02596   1.87674
N     0.08098  -2.53420   0.35898
C    -0.55656  -2.39008   1.52557
C    -0.78117  -3.49590   2.34500
C    -0.34346  -4.73915   1.93012
C     0.30881  -4.86354   0.71391
C     0.50814  -3.72200  -0.05372
C     1.20645  -3.76765  -1.37376
Si   -0.10704  -0.37644   3.45123
Si   -2.90191  -0.87945   1.75188
C    -0.97413  -0.84796   5.08740
C     0.00357   1.52711   3.39076
C     1.65456  -1.10763   3.43429
C    -3.84597  -2.00077   2.97872
C    -3.40729  -1.42203  -0.00725
C    -3.40112   0.93479   2.05000
H    -1.28613  -3.36787   3.28684
H    -0.50714  -5.60767   2.55185
H     0.66286  -5.82080   0.36489
H     0.61387  -4.33105  -2.09333
H     1.34848  -2.75558  -1.74742
H     2.17402  -4.25623  -1.27688
H    -1.96314  -0.40650   5.15118
H    -1.07784  -1.92130   5.20575
H    -0.40009  -0.48381   5.93393
H     0.43512   1.87785   2.45382
H    -0.96992   1.99077   3.50046
H     0.63361   1.89588   4.19344
H     2.27520  -0.68050   4.21525
H     1.63888  -2.18365   3.57536
H     2.14218  -0.91228   2.48159
H    -3.71062  -3.05063   2.73866
H    -3.52628  -1.84885   4.00347
H    -4.91085  -1.79263   2.93517
H    -2.93446  -0.80202  -0.76785
H    -3.11094  -2.44943  -0.19614
H    -4.48056  -1.35671  -0.15483
H    -3.32101   1.20265   3.09759
H    -2.77717   1.61884   1.48132
H    -4.42944   1.10117   1.74769
O     1.02101   0.41921  -1.22650
