43

Hg    0.00000   0.00000   0.00000
I     0.85631  -2.45459  -0.22280
S    -0.96046   0.36411   2.65073
S     2.45765   1.47778   0.90392
N    -1.15441   2.97671   2.25617
H    -0.74068   3.90906   2.34732
H    -1.98066   2.79021   1.70978
N     0.65950   2.22864   3.47983
H     1.13010   1.40555   3.83676
N     0.80030   4.51526   3.05262
N     1.65584   3.85308  -0.01057
H     1.89160   4.84019  -0.15128
H     0.83806   3.42196  -0.42057
N     3.69484   3.73320   1.06559
H     4.35015   3.11442   1.52538
N     3.24152   5.90252   0.33898
C    -0.47093   1.96833   2.77122
C     1.34210   3.42512   3.58554
C     2.57940   3.45024   4.23686
H     2.99657   2.54623   4.65083
C     3.24008   4.65865   4.32313
H     4.19746   4.71985   4.81902
C     2.66594   5.79471   3.76832
H     3.16357   6.74963   3.82392
C     1.43590   5.67981   3.13627
C     0.73664   6.85320   2.53179
H     0.00390   7.24208   3.23867
H     0.20587   6.55285   1.63230
H     1.44286   7.64370   2.29683
C     2.56782   3.12166   0.60222
C     4.05889   5.06297   0.96624
C     5.26766   5.47930   1.53036
H     5.91084   4.77153   2.02835
C     5.60501   6.81405   1.42754
H     6.52934   7.17457   1.85332
C     4.74836   7.68559   0.77066
H     4.98951   8.73182   0.67288
C     3.57070   7.18542   0.22993
C     2.61779   8.05663  -0.52270
H     1.65369   7.56725  -0.62418
H     3.01164   8.24835  -1.52023
H     2.49284   9.01466  -0.02385
O    -0.79782   1.22444  -0.76599
