35

Ni    0.00000   0.00000   0.00000
N    -1.45524  -1.06865   0.76338
H    -1.11731  -1.54010   1.61002
N    -1.26618   1.34378  -0.13876
N     1.23432   1.30433  -0.78813
H     1.76024   0.85027  -1.54352
C    -2.52870  -0.14737   1.12369
C    -3.58310  -0.51329   1.93008
H    -3.64264  -1.51542   2.33160
C    -4.55570   0.42550   2.24402
H    -5.38548   0.15264   2.87693
C    -4.43252   1.71988   1.76526
H    -5.17166   2.45907   2.03829
C    -3.37411   2.09740   0.96200
H    -3.27786   3.12692   0.65988
C    -2.40173   1.15546   0.59866
C    -0.92967   2.38043  -0.96369
C    -1.76569   3.35443  -1.52709
H    -2.82542   3.34189  -1.33429
C    -1.24010   4.30044  -2.38518
H    -1.89866   5.04201  -2.81361
C     0.10342   4.30662  -2.72422
H     0.49291   5.05017  -3.40138
C     0.94105   3.32628  -2.21146
H     1.98236   3.29279  -2.50097
C     0.42643   2.38272  -1.35052
C    -1.93886  -2.11919  -0.15096
H    -2.76209  -2.68163   0.29998
H    -1.12323  -2.80273  -0.38723
H    -2.29728  -1.65615  -1.07152
C     2.22346   1.82265   0.17445
H     2.88402   2.55566  -0.29874
H     2.82171   0.99870   0.56339
H     1.70027   2.30754   0.99990
O     1.12971  -1.19618   0.12410
