65

Ni    0.00000   0.00000   0.00000
N     1.81186   0.87646  -0.01586
N     0.43076  -0.51929   1.78945
N    -1.49218  -1.14686  -0.08321
N    -1.11320   1.97549   0.71061
C     2.27205   0.90719   1.36831
C     3.40934   1.57152   1.77724
H     3.99399   2.14953   1.07673
C     3.81542   1.51021   3.10280
H     4.69690   2.04427   3.42219
C     3.08915   0.74604   4.00302
H     3.41234   0.67912   5.03234
C     1.96026   0.06381   3.60664
H     1.41447  -0.54277   4.31449
C     1.50618   0.14621   2.27549
C    -0.41960  -1.18900   2.66159
C    -0.62260  -2.58127   2.55785
C    -1.53502  -3.19833   3.40652
H    -1.67093  -4.26870   3.33997
C    -2.23661  -2.48043   4.35674
H    -2.93272  -2.98383   5.01132
C    -2.03276  -1.11403   4.46934
H    -2.57428  -0.54333   5.21051
C    -1.13981  -0.48021   3.63125
H    -0.98673   0.58719   3.70885
C     0.11484  -3.38529   1.57072
C     1.47355  -3.17828   1.33823
H     2.01086  -2.44821   1.92390
C     2.14847  -3.93088   0.39400
H     3.20250  -3.75934   0.22537
C     1.48481  -4.90783  -0.32878
H     2.01318  -5.49014  -1.06936
C     0.14198  -5.14189  -0.08601
H    -0.38010  -5.91359  -0.63391
C    -0.53565  -4.38867   0.85441
H    -1.58740  -4.56951   1.02826
C     1.92544   2.19693  -0.64571
H     1.46606   2.94944  -0.00623
H     1.41132   2.18546  -1.60624
H     2.97265   2.46512  -0.81720
C     2.65446  -0.07777  -0.76105
H     3.70765   0.22536  -0.71084
H     2.34255  -0.10433  -1.80563
H     2.55419  -1.07543  -0.32821
C    -1.46183  -2.16511  -0.94218
H    -0.53505  -2.33382  -1.47562
C    -2.56037  -2.97368  -1.17787
H    -2.48583  -3.77886  -1.89108
C    -3.73594  -2.73178  -0.48796
H    -4.61138  -3.34238  -0.65115
C    -3.75866  -1.68410   0.41831
H    -4.64663  -1.45533   0.98601
C    -2.61918  -0.91867   0.58817
H    -2.61239  -0.09375   1.28827
C    -2.05825   2.47049  -0.08332
H    -2.39871   1.82269  -0.88029
C    -2.58468   3.74357   0.06536
H    -3.34861   4.09562  -0.60997
C    -2.10929   4.54636   1.08896
H    -2.49451   5.54502   1.23524
C    -1.12653   4.03580   1.92135
H    -0.72281   4.62121   2.73291
C    -0.66277   2.75024   1.69308
H     0.10857   2.32659   2.32318
O    -0.24416   0.32888  -1.59835
