47

Ni    0.00000   0.00000   0.00000
N    -0.70641   1.38768   1.28838
H    -1.21806   0.93062   2.04819
N     1.55858   0.98882   0.06749
N     1.01387  -1.16834  -1.27491
H     0.45915  -1.43041  -2.09379
C     0.47551   2.03459   1.84349
C     0.42466   2.81126   2.97993
H    -0.51421   2.95788   3.49700
C     1.59036   3.38181   3.47146
H     1.56215   3.98678   4.36411
C     2.79161   3.13912   2.82497
H     3.70483   3.55436   3.22631
C     2.85375   2.35920   1.68720
H     3.81064   2.14139   1.24156
C     1.68158   1.80782   1.14994
C     2.44792   0.75604  -0.93990
C     3.51134   1.57370  -1.34536
H     3.72342   2.48994  -0.81898
C     4.24339   1.24821  -2.47040
H     5.05537   1.89375  -2.77256
C     3.93233   0.13693  -3.23584
H     4.49533  -0.08759  -4.12828
C     2.86620  -0.67156  -2.86632
H     2.58542  -1.50920  -3.48855
C     2.15592  -0.38267  -1.72100
C    -1.63122   2.37147   0.66638
H    -1.53232   3.32763   1.20143
C    -3.06920   1.87880   0.77103
H    -3.16256   0.90416   0.29772
H    -3.74047   2.57472   0.27528
H    -3.37585   1.79170   1.81160
C    -1.21604   2.56794  -0.79068
H    -1.19060   1.58460  -1.28957
H    -0.22994   3.02592  -0.85151
H    -1.92789   3.20177  -1.31304
C     1.35453  -2.43367  -0.56661
H     0.40205  -2.95857  -0.42138
C     1.93991  -2.10593   0.80499
H     2.88685  -1.57870   0.70503
H     2.10428  -3.01915   1.37113
H     1.23212  -1.47517   1.36633
C     2.29148  -3.33882  -1.36181
H     1.87452  -3.57020  -2.33981
H     2.42378  -4.27395  -0.82366
H     3.26689  -2.87596  -1.49066
O    -1.35513  -0.94043  -0.04133
