53

Ni    0.00000   0.00000   0.00000
N    -0.33802   1.81833   0.42270
N     0.20776  -0.28514   1.95983
N    -0.27723   0.33724  -1.83988
C    -0.94045   2.71728  -0.46250
C    -0.15434   3.41740  -1.37966
H     0.91833   3.29421  -1.34013
C    -0.73032   4.25453  -2.31381
H    -0.10649   4.79052  -3.01496
C    -2.10568   4.41027  -2.34548
H    -2.56335   5.06354  -3.07382
C    -2.89537   3.72231  -1.43990
H    -3.97004   3.84069  -1.47096
C    -2.33843   2.87314  -0.49798
C    -3.20183   2.09497   0.44715
H    -3.20995   2.55987   1.43386
H    -2.80575   1.08306   0.56854
H    -4.22494   2.03784   0.08203
C    -0.40478   2.04945   1.75939
C    -0.71913   3.29477   2.33336
H    -0.97788   4.12151   1.68776
C    -0.67546   3.45631   3.69999
H    -0.91801   4.41907   4.12728
C    -0.32227   2.40559   4.53453
H    -0.29062   2.54418   5.60414
C    -0.01259   1.17004   3.98734
H     0.25414   0.35392   4.64390
C    -0.06246   0.99211   2.62014
C    -0.77366  -1.28295   2.41614
H    -0.68714  -1.44695   3.49527
H    -0.60569  -2.22839   1.90026
H    -1.78284  -0.92808   2.19871
C     1.56376  -0.74323   2.29805
H     2.28319   0.02976   2.02474
H     1.78945  -1.65727   1.74878
H     1.65326  -0.94285   3.37042
C     0.76761   0.64859  -2.61378
C     0.59234   0.99747  -3.94383
H     1.45483   1.25087  -4.54164
C    -0.67837   1.03085  -4.50352
C    -1.74196   0.67131  -3.68321
H    -2.75225   0.66300  -4.05998
C    -1.49810   0.33156  -2.36866
H    -2.31387   0.04629  -1.71632
C     2.12280   0.58171  -1.98898
H     2.03087   0.72557  -0.90161
H     2.79377   1.32730  -2.40756
H     2.54646  -0.40912  -2.15909
C    -0.87943   1.43940  -5.92504
H    -0.57242   2.47585  -6.05866
H    -1.92191   1.34451  -6.21549
H    -0.27020   0.82518  -6.58601
O     0.34235  -1.56911  -0.37842
