56

Pd    0.00000   0.00000   0.00000
Cl    0.31356  -1.45197   1.74069
P    -0.47105   1.07388  -1.92245
P     0.49742   1.42085   1.67680
O    -0.49420   2.70578  -2.02237
O     0.54895   3.04018   1.45568
C    -1.03842   3.51319  -0.99442
H    -1.42922   2.88768  -0.18050
H    -1.85907   4.10059  -1.41879
C     0.03930   4.43814  -0.43743
H    -0.41678   5.14298   0.25779
H     0.50501   4.98755  -1.25558
C     1.10348   3.62259   0.29041
H     1.48274   2.84421  -0.38540
H     1.93415   4.26848   0.59282
C     0.77149   0.85460  -3.28352
H     0.82146   1.82875  -3.78586
C    -2.16569   0.59250  -2.53977
H    -2.04739  -0.39310  -2.99632
C     2.18494   1.03935   2.37780
H     2.04985   0.16566   3.01989
C    -0.74544   1.49435   3.05316
H    -0.77650   2.54872   3.35498
C     0.43501  -0.23320  -4.29385
H     1.24677  -0.32064  -5.01450
H    -0.47742  -0.00277  -4.83785
H     0.31364  -1.18996  -3.79247
C     2.10373   0.56634  -2.58922
H     2.01215  -0.33731  -1.97318
H     2.39381   1.40465  -1.95262
H     2.89419   0.40249  -3.31943
C    -2.71245   1.57966  -3.56236
H    -3.63206   1.19263  -3.99784
H    -1.99481   1.74902  -4.36230
H    -2.93338   2.53890  -3.09842
C    -3.08081   0.45545  -1.32205
H    -3.28842   1.43042  -0.87851
H    -2.60848  -0.19054  -0.56517
H    -4.02919   0.00264  -1.60567
C     3.09374   0.64752   1.21177
H     3.31859   1.51201   0.58523
H     2.60747  -0.12587   0.59640
H     4.03410   0.24154   1.58026
C     2.75237   2.19871   3.18583
H     3.66670   1.88855   3.68884
H     2.04076   2.53529   3.93678
H     2.98847   3.04346   2.54173
C    -0.42595   0.61984   4.25750
H    -1.23653   0.69165   4.98129
H     0.49283   0.93483   4.74560
H    -0.32494  -0.41902   3.95389
C    -2.08471   1.10016   2.42789
H    -2.01103   0.09219   2.00008
H    -2.36184   1.80313   1.63977
H    -2.87569   1.09616   3.17573
O    -0.24484  -1.26867  -1.02618
