51

Ir    0.00000   0.00000   0.00000
O     2.84322  -1.05465   4.55649
N     1.17882  -0.88239  -1.39141
C     1.51535  -0.69622   1.13567
C     1.58669  -0.61031   2.51807
H     0.76374  -0.17152   3.05827
C     2.69074  -1.10121   3.20688
C     3.74714  -1.68790   2.49896
H     4.59416  -2.05497   3.05613
C     3.67963  -1.81031   1.13358
H     4.48955  -2.28726   0.60273
C     2.56672  -1.32863   0.43893
C     2.33913  -1.45633  -0.98141
C     3.16306  -2.12153  -1.89132
H     4.07830  -2.57236  -1.54443
C     2.79513  -2.20690  -3.21674
H     3.42235  -2.71737  -3.93151
C     1.59139  -1.63406  -3.61482
H     1.25733  -1.69142  -4.63807
C     0.81977  -0.99091  -2.67018
H    -0.12944  -0.55436  -2.94557
C     1.78865  -0.54759   5.33827
H     2.10759  -0.66162   6.37334
H     0.86497  -1.11181   5.17836
H     1.61004   0.51267   5.13050
C    -2.02169   1.16459  -0.27540
C    -1.12275   1.72319  -1.18248
C     0.03369   2.18129  -0.44001
C    -0.24312   2.01868   0.95477
C    -1.45501   1.27846   1.05926
C    -3.37465   0.59583  -0.54828
H    -4.13348   1.15144   0.00415
H    -3.41818  -0.44469  -0.22581
H    -3.61549   0.63934  -1.60743
C    -1.33695   1.94052  -2.64707
H    -1.81634   2.90816  -2.81190
H    -1.98051   1.17244  -3.07342
H    -0.39198   1.94280  -3.18820
C     1.13219   3.02932  -1.00060
H     0.80036   4.06698  -1.07891
H     1.42451   2.69414  -1.99425
H     2.00862   2.99908  -0.35731
C     0.54700   2.64394   2.06284
H     0.46280   3.72994   1.99720
H     1.60168   2.38087   2.00212
H     0.17019   2.33341   3.03347
C    -2.23862   0.98931   2.30328
H    -3.04292   1.71885   2.41850
H    -1.60838   1.03218   3.18839
H    -2.68337  -0.00233   2.24819
O    -0.73042  -1.46590   0.20029
