40

Hg    0.00000   0.00000   0.00000
Cl   -0.17345  -0.98164  -2.03202
C    -3.13084  -1.40881   0.27208
H    -2.71898  -1.92746  -0.58386
C    -4.29508  -1.84706   0.88964
H    -4.81119  -2.71932   0.52203
C    -4.75915  -1.14713   1.99106
H    -5.64985  -1.46460   2.51287
C    -4.06129  -0.02979   2.41720
H    -4.39270   0.53481   3.27443
C    -2.91426   0.35542   1.72343
C    -2.12507   1.52596   2.12269
C     0.78298   3.05035   0.86978
C     1.63617   4.15848   1.37415
C     2.84070   4.45673   0.74587
H     3.14182   3.88392  -0.11647
C     3.61289   5.48448   1.26383
H     4.55592   5.74596   0.80749
C     3.15263   6.16693   2.37871
H     3.72298   6.97173   2.81499
C     1.93412   5.78962   2.93067
H     1.53310   6.29055   3.80185
C    -2.39429   2.21319   3.40617
C    -3.54507   2.97086   3.60065
H    -4.26835   3.06000   2.80274
C    -3.74877   3.61950   4.80572
H    -4.64286   4.20674   4.95313
C    -2.81027   3.51617   5.81960
H    -2.97555   4.02090   6.75956
C    -1.66144   2.76636   5.62757
H    -0.92921   2.68409   6.41627
C    -1.44631   2.11997   4.42339
H    -0.56123   1.51970   4.26726
N    -2.45751  -0.34720   0.67848
N    -1.16971   1.86348   1.33700
N    -0.34490   2.87642   1.61029
H    -0.43471   3.44338   2.45833
N     1.19220   4.81304   2.44714
O     1.06834   2.37215  -0.10318
O     0.64516  -0.22274   1.50222
