40

Hg    0.00000   0.00000   0.00000
Br    0.04065   0.95103  -2.22290
C     3.04511  -1.25620  -1.15085
H     2.36215  -1.44562  -1.96893
C     4.37006  -1.66293  -1.22309
H     4.73191  -2.18057  -2.09662
C     5.20336  -1.38441  -0.15257
H     6.24160  -1.68100  -0.16745
C     4.68446  -0.70955   0.93885
H     5.30688  -0.45842   1.78367
C     3.33983  -0.33993   0.92779
C     2.75280   0.40513   2.04810
C    -0.28432   2.12244   2.52326
C    -0.87731   2.82284   3.69078
C    -2.17377   3.32154   3.62559
H    -2.74288   3.19884   2.71806
C    -2.68597   3.96034   4.74380
H    -3.68890   4.36010   4.73556
C    -1.88726   4.07380   5.87045
H    -2.24720   4.56195   6.76227
C    -0.60401   3.54110   5.83070
H     0.05721   3.60417   6.68474
C     3.44587   0.42478   3.35159
C     3.73207  -0.77829   3.99390
H     3.45465  -1.70968   3.52327
C     4.34017  -0.77228   5.23529
H     4.55400  -1.70738   5.73018
C     4.67410   0.42787   5.84264
H     5.15182   0.42865   6.81065
C     4.39590   1.62631   5.20711
H     4.65812   2.56304   5.67532
C     3.77761   1.62931   3.96925
H     3.58281   2.56505   3.46377
N     2.54030  -0.62015  -0.10801
N     1.63337   0.98948   1.81974
N     0.97689   1.67356   2.76304
H     1.33460   1.77718   3.71633
N    -0.10676   2.93105   4.77329
O    -0.86563   1.96982   1.46185
O    -0.35572  -1.08728   1.18903
