30

Hg    0.00000   0.00000   0.00000
Br    1.85989   0.51870   1.47949
C     1.19039   2.37914  -2.35391
H     1.73415   1.47902  -2.60956
C     1.40198   3.55717  -3.05884
H     2.11267   3.58452  -3.86890
C     0.68176   4.68260  -2.69454
H     0.81659   5.61869  -3.21552
C    -0.21739   4.58435  -1.64709
H    -0.79893   5.43708  -1.33187
C    -0.36596   3.35966  -0.99539
C    -1.30227   3.22545   0.10600
H    -1.87709   4.10723   0.39861
C    -2.37749   0.72133   2.32678
C    -3.36181   0.71610   3.43843
C    -3.57782  -0.44309   4.17574
H    -3.02455  -1.33581   3.93209
C    -4.50564  -0.40066   5.20462
H    -4.70270  -1.27825   5.80177
C    -5.17355   0.78824   5.45051
H    -5.90331   0.86498   6.24086
C    -4.88365   1.88998   4.65390
H    -5.37907   2.83943   4.80742
N     0.33626   2.27661  -1.35267
N    -1.43233   2.10618   0.69737
N    -2.27663   1.93740   1.71178
H    -2.86865   2.69170   2.07156
N    -4.00262   1.86154   3.67354
O    -1.72779  -0.25158   1.99611
O    -1.04932  -0.57848  -1.13437
