33

Hg    0.00000   0.00000   0.00000
Cl    0.33113  -2.22412  -0.29768
C     2.12745  -0.07928  -2.70371
H     1.61698  -1.03255  -2.74101
C     3.07236   0.26971  -3.65896
H     3.30749  -0.40630  -4.46504
C     3.70019   1.49847  -3.54367
H     4.44815   1.80687  -4.25912
C     3.35853   2.32876  -2.48938
H     3.85316   3.27878  -2.36395
C     2.39255   1.90446  -1.57773
C     1.99012   2.72537  -0.42579
C     0.38556   1.91112   2.59721
C    -0.10375   2.72769   3.73936
C    -0.87653   2.14311   4.73695
H    -1.10337   1.09074   4.67888
C    -1.33229   2.94770   5.76925
H    -1.93856   2.53375   6.56106
C    -0.99782   4.29248   5.76320
H    -1.33364   4.95479   6.54543
C    -0.21861   4.77701   4.71950
H     0.06736   5.81942   4.67040
C     2.14109   4.21723  -0.45881
H     1.24474   4.68428  -0.05121
H     2.27169   4.57245  -1.47561
H     2.99651   4.53189   0.14029
N     1.79579   0.71215  -1.69837
N     1.50832   2.06957   0.56043
N     1.08471   2.64538   1.68782
H     1.10534   3.65478   1.84758
N     0.21866   4.02136   3.73133
O     0.18298   0.71359   2.49200
O    -1.09308   1.22135  -0.18966
