33

Hg    0.00000   0.00000   0.00000
Br   -1.67643  -1.70707  -0.55242
C     2.12445  -0.00583  -2.75451
H     1.54572   0.90272  -2.85900
C     3.13850  -0.30629  -3.65253
H     3.35589   0.36104  -4.47048
C     3.85869  -1.47278  -3.46078
H     4.66512  -1.74111  -4.12697
C     3.53234  -2.29244  -2.39375
H     4.09617  -3.19274  -2.20919
C     2.49097  -1.91931  -1.54514
C     2.11128  -2.73543  -0.38261
C     0.36384  -2.01120   2.58988
C    -0.02523  -2.83616   3.76228
C    -0.83254  -2.30096   4.75976
H    -1.16484  -1.27845   4.67951
C    -1.18366  -3.11539   5.82479
H    -1.81134  -2.73969   6.61884
C    -0.71612  -4.41958   5.84855
H    -0.96718  -5.08759   6.65716
C     0.08656  -4.85605   4.80125
H     0.47438  -5.86574   4.77470
C     2.41808  -4.20288  -0.35282
H     3.29808  -4.39872   0.26127
H     2.59518  -4.58143  -1.35418
H     1.57509  -4.74999   0.06882
N     1.80718  -0.78407  -1.73438
N     1.52073  -2.10383   0.56022
N     1.12638  -2.69505   1.69467
H     1.28976  -3.68176   1.90272
N     0.42596  -4.09072   3.78276
O     0.02907  -0.84777   2.44515
O     0.71671   1.48040   0.13133
