35

Pt    0.00000   0.00000   0.00000
Cl   -0.58035   0.19508  -2.16953
S     0.66995  -2.11823  -0.58830
O     1.28866  -2.88383   0.49148
N     0.49173  -0.24598   1.90109
N     1.11415  -0.71976   4.55912
C    -0.42588  -0.10791   2.86173
H    -1.41471   0.21111   2.56097
C    -0.10030  -0.35032   4.18762
H    -0.83467  -0.24482   4.97300
C     2.01923  -0.84217   3.60287
H     3.01196  -1.13571   3.91137
C     1.72165  -0.60715   2.26873
H     2.46913  -0.71143   1.49580
C     1.80391  -2.15945  -2.02046
H     2.14268  -3.18491  -2.14670
H     1.22254  -1.82428  -2.87560
C     2.94452  -1.19793  -1.73046
H     3.52458  -1.57416  -0.88440
H     2.50907  -0.22923  -1.44887
C     3.85133  -1.00846  -2.94005
H     4.65907  -0.32120  -2.70298
H     3.28578  -0.60037  -3.77382
H     4.28471  -1.95815  -3.24592
C    -0.74366  -3.08738  -1.21786
H    -0.99552  -2.66814  -2.18876
H    -0.42613  -4.12364  -1.30423
C    -1.88710  -2.90820  -0.23287
H    -1.59494  -3.32705   0.73309
H    -2.05717  -1.82917  -0.10187
C    -3.17232  -3.56405  -0.72161
H    -3.96962  -3.41993   0.00266
H    -3.02586  -4.63240  -0.86464
H    -3.48306  -3.12699  -1.66731
O    -0.51463   1.52356   0.36937
