60

Pd    0.00000   0.00000   0.00000
Cl    1.26004   0.68722   1.73334
P    -1.78155  -0.63809   1.22425
P    -1.58840  -0.60130  -1.48491
N    -2.70110  -0.92968  -0.21199
C    -1.84135  -2.16737   2.19105
C    -1.74252  -3.38451   1.52052
H    -1.72133  -3.39055   0.43781
C    -1.64997  -4.56397   2.23327
H    -1.58226  -5.50711   1.71100
C    -1.62429  -4.53437   3.61942
H    -1.54901  -5.45607   4.17673
C    -1.66518  -3.32209   4.28892
H    -1.61059  -3.29847   5.36719
C    -1.76177  -2.13762   3.58068
H    -1.75901  -1.18900   4.09878
C    -2.62296   0.65460   2.18752
C    -3.64867   0.44330   3.10401
H    -4.00465  -0.55739   3.30647
C    -4.21141   1.52115   3.76387
H    -5.00586   1.35642   4.47703
C    -3.75733   2.80725   3.51607
H    -4.20042   3.64218   4.03795
C    -2.72910   3.02085   2.61191
H    -2.36498   4.02085   2.43181
C    -2.16019   1.94709   1.95237
H    -1.32225   2.09139   1.26716
C    -2.23215   0.86372  -2.35692
C    -1.72566   2.09597  -1.95002
H    -0.93562   2.12538  -1.19065
C    -2.18800   3.26111  -2.53368
H    -1.78984   4.21559  -2.22437
C    -3.15367   3.19897  -3.52641
H    -3.51324   4.10747  -3.98601
C    -3.64998   1.97341  -3.94204
H    -4.39405   1.92872  -4.72363
C    -3.19094   0.80396  -3.36284
H    -3.56810  -0.15354  -3.69503
C    -1.75980  -1.92252  -2.71162
C    -2.41834  -3.12839  -2.50619
H    -2.94094  -3.31105  -1.57868
C    -2.40610  -4.09493  -3.49703
H    -2.92723  -5.02833  -3.34112
C    -1.72329  -3.87155  -4.68110
H    -1.71449  -4.63116  -5.44839
C    -1.03934  -2.68052  -4.87701
H    -0.49196  -2.51495  -5.79269
C    -1.05164  -1.71029  -3.89469
H    -0.50768  -0.78216  -4.01913
C    -4.14745  -1.01688  -0.40882
H    -4.28125  -1.31311  -1.45886
C    -4.76015  -2.08176   0.49407
H    -4.32419  -3.05932   0.30400
H    -5.83214  -2.13865   0.32187
H    -4.58707  -1.82974   1.53714
C    -4.85002   0.32669  -0.20796
H    -4.33047   1.11224  -0.75159
H    -4.87840   0.59400   0.84432
H    -5.87046   0.26476  -0.57873
O     1.14486   0.41236  -1.11434
