61

Cu    0.00000   0.00000   0.00000
S    -1.57813   0.56261   2.40066
P     0.91705   2.01291   0.43832
N    -3.46661  -1.24197   2.16898
C     4.15100   1.41206   3.64083
C    -2.11469   0.44429  -1.84737
C     2.56252   1.99004  -1.74780
N    -2.76076  -0.30477   0.19541
C     3.09041   0.52859   3.52743
N    -1.91648   0.41395  -0.56969
C    -1.85705   5.28043   2.07311
C     2.12980   0.72725   2.55287
C    -1.40723   1.21740  -4.04377
C    -0.83951   4.80015   2.88012
C     4.24919   2.49552   2.78163
C     2.22164   1.81718   1.69308
C     0.03165   3.83513   2.40696
C     3.38819   3.88830  -2.94960
C     2.66326   4.72986  -2.12138
C     1.84909   2.83325  -0.89892
C     3.33255   2.51548  -2.76730
C     3.28972   2.70222   1.80813
C    -1.27007   1.19666  -2.70041
C    -0.11178   3.35276   1.11199
C    -2.01175   4.78993   0.78592
C     0.90403   3.38537  -6.85902
C     1.01340   3.68303  -5.50975
C     0.03773   2.38525  -7.27183
C     1.89194   4.20859  -1.09721
C    -2.62794  -0.38190   1.54390
C    -1.14798   3.82402   0.30814
C    -0.71072   1.69167  -6.34319
C    -0.60214   1.97019  -4.97525
C     0.27436   2.98529  -4.57657
H     4.90536   1.25574   4.39775
H    -2.93573  -0.12323  -2.29438
H     2.50778   0.91845  -1.59575
H     3.01394  -0.31823   4.19273
H    -2.53701   6.03046   2.44971
H     1.29847   0.04118   2.45756
H    -2.18180   0.60321  -4.48804
H    -0.72685   5.17339   3.88756
H     5.07864   3.18227   2.86999
H     0.81473   3.45062   3.04482
H     3.99646   4.30175  -3.74045
H     2.70124   5.79968  -2.26938
H     3.88614   1.85787  -3.42040
H     3.36880   3.54655   1.13698
H    -0.47531   1.74821  -2.21397
H    -2.81240   5.15531   0.15879
H     1.48634   3.93303  -7.58491
H     1.67824   4.46836  -5.18188
H    -0.05513   2.15025  -8.32201
H     1.32823   4.86709  -0.45027
H    -1.27622   3.42497  -0.69012
H    -1.38549   0.91314  -6.66997
H     0.36771   3.24188  -3.53268
H    -3.28756  -1.39383   3.14828
H    -3.45165  -0.89991  -0.26743
H    -3.87968  -2.01003   1.66299
O     0.18737  -1.63571  -0.10879
