38

C    -0.80314   1.90871  -2.57219
C    -1.56966   0.90271  -3.14918
H    -1.50296  -0.11552  -2.78973
C    -2.40659   1.26251  -4.18331
H    -3.02121   0.51101  -4.65451
C    -2.48352   2.58082  -4.64171
H    -3.15515   2.81326  -5.45410
C    -1.72565   3.59063  -4.08412
H    -1.78632   4.60766  -4.43949
C    -0.88341   3.23558  -3.04209
C     0.55773   3.07738  -1.38470
C     1.55242   3.49012  -0.37427
H     2.30125   4.15835  -0.79963
H     2.03183   2.61516   0.06473
C    -0.20017   3.17206   1.83251
H    -0.77041   3.71172   2.58729
H    -0.87767   2.70127   1.11926
C     0.70503   2.17910   2.44179
C     1.97970   0.46575   2.74393
C     2.68569  -0.72787   2.63991
H     2.58284  -1.35362   1.76659
C     3.50867  -1.06448   3.69363
H     4.07120  -1.98444   3.65177
C     3.63631  -0.24704   4.82014
H     4.29266  -0.55562   5.61957
C     2.94567   0.94238   4.93680
H     3.04466   1.57353   5.80634
C     2.11613   1.28780   3.88150
N     0.10313   1.85651  -1.53562
N     1.09635   1.06267   1.86878
N    -0.00111   3.94685  -2.26457
H     0.17496   4.93768  -2.30590
N     1.29621   2.36597   3.64865
H     1.15124   3.15300   4.26003
S     0.77418   4.46411   0.97037
Cl    1.26354  -1.70666  -0.77468
Hg    0.00000   0.00000   0.00000
O    -1.53791   0.38452   0.45768
