46

Pt    0.00000   0.00000   0.00000
C     1.87328  -0.30735  -0.82764
H     2.53155  -0.77094  -0.08938
H     2.29245   0.66415  -1.09153
H     1.85004  -0.94271  -1.71343
N     0.60146  -1.14739   1.68956
N    -1.95101   0.54209   0.82104
C    -0.73353   1.05980  -1.54429
C    -0.18106   1.20754  -2.80897
H     0.74369   0.72364  -3.08152
F    -2.27990  -3.72450  -3.18477
C    -0.81687   1.99316  -3.75380
C    -2.01315   2.63450  -3.49241
H    -2.51098   3.22903  -4.24022
F    -0.68738  -5.14501   0.96220
C    -2.55516   2.48532  -2.23228
C    -1.94324   1.72236  -1.23453
C    -2.47886   1.55990   0.11986
C    -3.43696   2.39257   0.70193
H    -3.83270   3.23568   0.16344
C    -3.85557   2.14834   1.99585
H    -4.58611   2.79335   2.46006
C    -3.32173   1.07248   2.68915
H    -3.62709   0.84380   3.69746
C    -2.36178   0.30429   2.05715
H    -1.90892  -0.53885   2.56507
C    -0.59008  -1.83705  -0.59972
C    -1.22764  -2.14505  -1.79124
H    -1.39373  -1.39304  -2.54769
C    -1.66008  -3.43834  -2.02772
F    -0.26709   2.12336  -4.97401
C    -1.47880  -4.45003  -1.10331
H    -1.82247  -5.45378  -1.29074
F    -3.74105   3.09141  -2.01049
C    -0.83806  -4.13555   0.07815
C    -0.37589  -2.84833   0.36541
C     0.31773  -2.45999   1.59837
C     0.69287  -3.32221   2.63052
H     0.48724  -4.37626   2.57476
C     1.34576  -2.81461   3.74020
H     1.63976  -3.47668   4.54067
C     1.61831  -1.45732   3.80969
H     2.12452  -1.02600   4.65775
C     1.22768  -0.65880   2.74855
H     1.41620   0.40863   2.73523
O     0.45785   1.43721   0.66880
