32

Rh    0.00000   0.00000   0.00000
P    -0.88983  -0.75500   1.95132
P     1.13292   0.39546  -1.93180
O     3.63907   0.47562  -3.00818
H     3.60386  -0.39932  -3.40932
O    -0.18174  -1.26347   4.54456
H    -0.63350  -0.49632   4.91210
O    -1.77147   2.38438  -0.21278
C     2.99004   0.42066  -1.76266
H     3.26000   1.33425  -1.22302
H     3.30813  -0.44331  -1.16755
C     0.89872  -0.91549  -3.19456
H     1.24753  -1.86504  -2.78982
H     1.42681  -0.66812  -4.11536
H    -0.16748  -0.99943  -3.40521
C     0.88694   1.90185  -2.94446
H     0.99583   2.78133  -2.31234
H    -0.11665   1.89556  -3.36592
H     1.62748   1.93530  -3.74285
C     0.38207  -0.91085   3.30730
H     1.05871  -1.72099   3.02130
H     0.96451   0.01953   3.36984
C    -1.58372  -2.44586   1.97750
H    -0.88112  -3.11799   1.48754
H    -2.52999  -2.46046   1.43839
H    -1.73312  -2.75724   3.01142
C    -2.22423   0.17802   2.80678
H    -1.86599   1.16969   3.08146
H    -2.57552  -0.35581   3.68934
H    -3.05443   0.29708   2.11226
C    -1.08176   1.46442  -0.12874
O     0.97336  -1.32745   0.11376
