37

Cd    0.00000   0.00000   0.00000
S    -2.65413  -0.63345   0.69517
S    -2.59201   1.03354  -1.77418
S    -0.05787   2.84638   0.31794
S     1.26853   2.07588  -2.23172
Cl   -0.05565  -1.40789  -1.91019
N    -3.87968  -1.08234  -3.01477
N     3.54724   3.28606  -1.18858
C    -2.91863  -0.36954  -0.92693
C    -3.45699  -1.55524  -1.73608
H    -2.60663  -2.24060  -1.84678
H    -4.26069  -2.05484  -1.19309
C    -5.18501  -0.95837  -3.34245
H    -5.88370  -1.51155  -2.73294
C    -5.57895  -0.21512  -4.41148
H    -6.61918  -0.16643  -4.68532
C    -4.60634   0.49434  -5.15131
H    -4.90776   1.07119  -6.01116
C    -3.29664   0.41742  -4.78291
H    -2.52426   0.94728  -5.31551
C    -2.92609  -0.32400  -3.63624
H    -1.90044  -0.65035  -3.50268
C     1.25942   2.72226  -0.68757
C     2.60304   3.19953  -0.12171
H     2.47788   4.15112   0.39697
H     2.90679   2.42635   0.59686
C     3.61267   2.14592  -1.93666
H     3.49538   1.21446  -1.39664
C     4.30576   2.18028  -3.16587
H     4.41696   1.25943  -3.71403
C     4.76589   3.36777  -3.65575
H     5.28075   3.41493  -4.60209
C     4.58844   4.54503  -2.89786
H     4.94497   5.49274  -3.26441
C     3.95335   4.46976  -1.69589
H     3.77702   5.33833  -1.07938
O     1.59179  -0.05559   0.43082
