53

Re    0.00000   0.00000   0.00000
O    -1.17412  -0.73301   0.91164
O     1.00905   1.13796  -0.97185
O     1.59155  -0.56026   1.15763
N    -0.29498   1.94139   1.25810
N    -1.93330   1.04175  -1.17032
C     1.94589   0.04048   2.27067
C     3.20977  -0.34134   2.76758
H     3.74764  -1.08391   2.19917
C     3.73874   0.19604   3.91636
H     4.71077  -0.12535   4.25967
C     3.02504   1.14871   4.62733
H     3.42787   1.58099   5.53000
C     1.78332   1.53436   4.16478
H     1.22068   2.27129   4.72284
C     1.21863   1.00553   3.00753
C    -0.17780   1.46106   2.64798
H    -0.87044   0.62078   2.76415
H    -0.47716   2.25955   3.34251
C     1.26288   2.38296  -1.29348
C     1.71436   2.72655  -2.57400
H     1.90803   1.93115  -3.27859
C     1.90252   4.05038  -2.91385
H     2.25160   4.30263  -3.90364
C     1.64170   5.05244  -1.99267
H     1.78217   6.08791  -2.26104
C     1.21013   4.72234  -0.71902
H     1.02433   5.50325   0.00544
C     1.01674   3.40169  -0.34895
C     0.66511   3.03959   1.06730
H     0.30235   3.93589   1.59489
H     1.59507   2.72267   1.56106
C    -1.67065   2.35188   0.95972
H    -1.86630   3.35285   1.37197
H    -2.33697   1.64119   1.45297
C    -1.99577   2.37231  -0.54044
H    -3.00179   2.80104  -0.65408
H    -1.28930   3.03399  -1.04758
C    -1.64677   1.13009  -2.61037
H    -1.45369   0.11507  -2.96168
H    -0.72440   1.70117  -2.73538
C    -3.17867   0.29996  -0.90020
H    -4.03772   0.88429  -1.25842
H    -3.26161   0.19818   0.18288
C    -2.73192   1.78293  -3.46608
H    -2.37236   1.84850  -4.48954
H    -2.95689   2.79053  -3.12298
H    -3.64797   1.19953  -3.47042
C    -3.21083  -1.09995  -1.49593
H    -4.06615  -1.63259  -1.08874
H    -2.30716  -1.63898  -1.21947
H    -3.30121  -1.08703  -2.57793
O     0.27661  -1.23784  -1.05534
