23

Re    0.00000   0.00000   0.00000
Br    0.14207   1.68588  -1.77451
S    -0.09352  -1.56514   2.07240
O    -1.13199  -0.96950  -0.71167
O     0.73696   1.14148   1.30823
O     0.74966   1.84476   3.42615
N    -1.77441   1.27268   0.96651
H    -1.75361   2.15742   0.45945
H    -2.70436   0.87563   0.86426
C     0.19983   1.50774   2.41237
C    -1.37617   1.44041   2.35488
H    -1.72993   2.38525   2.78597
C    -1.86181   0.28153   3.24282
H    -1.26794   0.30160   4.15979
H    -2.90595   0.45755   3.51916
C    -1.78988  -1.10675   2.60995
H    -2.43092  -1.19356   1.73132
H    -2.09130  -1.85171   3.34725
C    -0.44544  -3.16684   1.30150
H     0.50359  -3.54325   0.92966
H    -1.13428  -3.02737   0.47179
H    -0.85099  -3.83988   2.05077
O     1.40305  -0.71832  -0.48782
