23

Re    0.00000   0.00000   0.00000
Cl    0.44745   1.27268  -1.79666
S     2.27775  -1.34688  -0.20289
O    -0.72763  -1.33349  -0.64457
O     1.07718   1.12856   1.15467
O     2.08382   1.66369   3.07305
N    -0.21281  -0.85162   2.12633
H    -1.04704  -0.40087   2.50552
H    -0.37262  -1.85598   2.10415
C     1.43247   0.93641   2.36969
C     0.98200  -0.48531   2.87956
H     0.78027  -0.41095   3.95338
C     2.14074  -1.46978   2.63307
H     1.74013  -2.47754   2.49429
H     2.77005  -1.47830   3.52554
C     3.05469  -1.12574   1.45765
H     3.91412  -1.79694   1.46473
H     3.41205  -0.09923   1.52918
C     3.30417  -0.19371  -1.14991
H     2.91044  -0.19353  -2.16191
H     4.33236  -0.54351  -1.13913
H     3.22180   0.80519  -0.73094
O    -1.32766   0.91863   0.34050
