45

Pd    0.00000   0.00000   0.00000
C     3.73168  -5.08462   4.68046
H     4.24101  -5.79201   5.30475
C     3.61589  -5.09989   3.32272
H     4.04256  -5.86178   2.69560
S     2.94096  -3.74514   5.39422
C     2.87691  -4.00930   2.83301
H     2.67381  -3.85422   1.78809
C     2.44106  -3.17893   3.83480
O     1.28398  -1.34336   4.76282
C     1.64948  -1.95439   3.77670
N     1.35192  -1.50841   2.51708
H     1.55958  -2.05376   1.67056
P     0.37874  -0.16120   2.22274
C    -1.23331  -0.58183   2.97390
C    -2.18159  -1.09149   2.08651
H    -1.92323  -1.19901   1.02124
C    -3.42869  -1.47390   2.54479
H    -4.16191  -1.87066   1.85801
C    -3.73428  -1.34689   3.89113
H    -4.70822  -1.64399   4.25133
C    -2.79326  -0.84350   4.77461
H    -3.03392  -0.75221   5.82348
C    -1.54239  -0.45874   4.32316
H    -0.80120  -0.08126   5.01011
C     1.09771   1.15739   3.23605
C     0.28377   2.17995   3.71212
H    -0.78085   2.14699   3.52128
C     0.83594   3.22453   4.42982
H     0.20136   4.01199   4.80981
C     2.20152   3.26147   4.66199
H     2.63070   4.07553   5.22719
C     3.01757   2.25862   4.16396
H     4.08313   2.29334   4.33714
C     2.47114   1.21266   3.44386
H     3.10417   0.43122   3.04652
C    -0.35998   0.51056  -2.03837
H     0.60707   0.97612  -2.26306
H    -0.73447  -0.16135  -2.80491
C    -1.26945   1.17917  -1.21000
H    -2.32852   0.92090  -1.24757
C    -0.77958   1.95389  -0.13917
H    -1.49120   2.39489   0.55039
H     0.13373   2.53669  -0.28245
O     0.72528  -1.45294  -0.29231
