59

Pd    0.00000   0.00000   0.00000
P    -1.16995  -1.75049  -0.67474
N    -2.61396  -1.84271   0.20340
H    -2.83038  -0.96533   0.69418
O    -3.17440  -3.96994  -0.30405
C    -3.40365  -2.94988   0.31966
C    -4.53020  -2.81516   1.24018
S    -5.59183  -4.17355   1.41224
C    -6.54827  -3.31340   2.54144
H    -7.40821  -3.78557   2.97399
C    -6.07993  -2.05535   2.77456
H    -6.54381  -1.36121   3.45208
C    -4.92318  -1.76518   2.03047
H    -4.41030  -0.82110   2.08326
C    -1.67875  -1.65006  -2.41723
C    -2.49500  -2.57657  -3.05706
H    -2.85094  -3.44193  -2.51837
C    -2.85812  -2.36491  -4.37614
H    -3.49081  -3.08190  -4.87857
C    -2.41920  -1.23749  -5.05182
H    -2.70720  -1.08084  -6.08104
C    -1.62201  -0.30296  -4.40865
H    -1.29361   0.58162  -4.93433
C    -1.25604  -0.50657  -3.09157
H    -0.63576   0.22173  -2.55663
C    -0.35352  -3.32694  -0.29634
C     0.27366  -3.31796   0.94680
H     0.22355  -2.40860   1.55345
C     0.95534  -4.43509   1.38717
H     1.43827  -4.43454   2.35350
C     1.02532  -5.55731   0.57544
H     1.55947  -6.43286   0.91432
C     0.42247  -5.55627  -0.67116
H     0.48934  -6.43048  -1.30194
C    -0.26714  -4.44100  -1.11513
H    -0.73662  -4.43987  -2.08683
N     1.21688   1.60710   0.65684
C     1.07105   2.58349  -0.42544
H     1.65271   3.49299  -0.21437
H     0.01575   2.85873  -0.53074
H     1.42694   2.15084  -1.36649
C     0.85860   2.22728   1.92986
H     1.55341   3.04173   2.17860
H     0.88427   1.47806   2.72499
H    -0.15282   2.63160   1.87488
C     2.59880   1.10488   0.70856
H     2.74310   0.59995   1.67302
H     3.31490   1.94083   0.65428
C     2.82043   0.10598  -0.39823
C     4.07758  -0.10511  -0.94415
H     4.92237   0.46740  -0.58483
C     4.24996  -1.04613  -1.94410
H     5.23010  -1.21283  -2.36624
C     3.15968  -1.76352  -2.40172
H     3.28487  -2.49555  -3.18678
C     1.90181  -1.54577  -1.85935
H     1.06440  -2.11920  -2.24379
C     1.70803  -0.62043  -0.84198
O    -1.36144   0.65952   0.65881
