22

Pt    0.00000   0.00000   0.00000
Br    0.70870  -1.70477   1.55345
S    -0.72557   1.55857  -1.75140
C    -2.51134   1.84368  -1.75576
C    -0.19182   3.15184  -1.02189
C     1.32261   3.24095  -0.89453
C     1.88861   2.46823   0.29722
C     1.94981   0.96454   0.21087
C     1.94209   0.18948  -0.93370
H    -2.98437   0.93572  -2.11703
H    -2.71276   2.66900  -2.43375
H    -2.86790   2.06016  -0.75321
H    -0.67851   3.26537  -0.05176
H    -0.56133   3.92170  -1.70131
H     1.79072   2.90931  -1.82341
H     1.57863   4.29482  -0.75939
H     1.33349   2.74659   1.20045
H     2.92034   2.79922   0.46078
H     2.39870   0.53240   1.10478
H     1.85859   0.63918  -1.91641
H     2.40782  -0.78920  -0.91310
O    -1.56350  -0.34800   0.39604
