31

Cd    0.00000   0.00000   0.00000
Br    0.33089   2.39970   0.60073
S    -2.44300  -0.94308  -1.05469
N     0.61669  -0.78255   2.34852
N    -0.59575  -2.49089   0.65467
N    -1.04836  -3.12145  -0.45575
H    -0.63654  -4.00828  -0.74002
N    -2.30804  -3.22383  -2.36525
H    -2.03576  -4.19426  -2.42465
N     1.16711  -4.03613   1.01603
H     1.26074  -4.25346   0.03257
H     2.05715  -4.08593   1.48802
C     0.95615   0.01183   3.35123
H     0.78971   1.07053   3.19522
C     1.50481  -0.46331   4.53442
H     1.77030   0.22184   5.32300
C     1.70314  -1.82740   4.67095
H     2.12441  -2.23734   5.57671
C     1.35247  -2.66302   3.62311
H     1.47516  -3.73230   3.70206
C     0.80637  -2.09827   2.47397
C     0.42862  -2.91124   1.30075
C    -1.90516  -2.50263  -1.30699
C    -3.25613  -2.75009  -3.34903
H    -2.99290  -3.19622  -4.31046
H    -3.14695  -1.66558  -3.41567
C    -4.69113  -3.10030  -2.96896
H    -4.81576  -4.17720  -2.87754
H    -5.37225  -2.73412  -3.73095
H    -4.94645  -2.63373  -2.02135
O     1.12509  -0.86148  -0.84530
