31

Zn    0.00000   0.00000   0.00000
I    -2.45537  -0.71323  -0.00755
S     0.75744  -0.95579  -2.53518
N    -0.17371   2.06491   1.00602
N    -0.37053   1.57382  -1.58208
N    -0.80192   1.14895  -2.80291
H    -1.65559   1.57700  -3.15939
N    -1.24896  -0.60838  -4.21572
H    -2.09459  -0.12107  -4.48024
N    -1.15068   3.73844  -2.00655
H    -1.02767   3.67081  -3.00394
H    -1.24325   4.67067  -1.64390
C     0.06903   2.26894   2.28765
H     0.11168   1.38739   2.91194
C     0.26449   3.53202   2.82574
H     0.45189   3.65002   3.88008
C     0.23069   4.62162   1.97178
H     0.40490   5.62039   2.34231
C    -0.02767   4.41229   0.62764
H    -0.03217   5.24700  -0.05664
C    -0.24092   3.11030   0.18006
C    -0.56489   2.79013  -1.21557
C    -0.51200  -0.13008  -3.20302
C    -1.11304  -1.95187  -4.73770
H    -1.77305  -2.63052  -4.18430
H    -0.08099  -2.26426  -4.56854
C    -1.44997  -1.97813  -6.21950
H    -2.48072  -1.67222  -6.38753
H    -1.32571  -2.98606  -6.60310
H    -0.79095  -1.31325  -6.77263
O     1.37141  -0.38153   0.83437
