65

Pt    0.00000   0.00000   0.00000
P     1.41815  -0.45480   1.69282
P     1.05664   0.53202  -1.89481
N    -0.44064  -0.58713   1.94595
N     1.37707   0.77395   2.87651
N     3.14006  -0.41561   1.72996
N     1.46439  -2.15014   1.91540
C    -0.96784   0.41318   2.83051
C     0.12055   1.48854   2.89234
C     2.57259   1.58372   2.86281
C     3.72849   0.64297   2.49854
C     3.79400  -1.68974   1.65875
C     2.68314  -2.70932   1.37535
C     0.23787  -2.78723   1.49363
C    -0.89391  -1.94253   2.08318
C     0.36486  -0.24408  -3.38318
C    -0.09017  -1.54923  -3.20564
C    -0.65822  -2.23954  -4.25714
C    -0.78377  -1.62203  -5.49236
C    -0.34578  -0.32040  -5.66876
C     0.22824   0.37470  -4.61760
C     2.80858   0.03998  -1.92927
C     3.27340  -1.05647  -2.64420
C     4.60563  -1.42277  -2.55618
C     5.47640  -0.69879  -1.75974
C     5.01462   0.39465  -1.04236
C     3.68458   0.75646  -1.11750
C     1.14552   2.30998  -2.23606
C     2.03226   2.85507  -3.15999
C     2.04224   4.22112  -3.37372
C     1.17881   5.04461  -2.66693
C     0.30580   4.50609  -1.73569
C     0.29077   3.14037  -1.51956
H    -1.92409   0.83214   2.48926
H    -1.11594  -0.01767   3.83179
H     0.03379   2.09117   3.80136
H     0.03702   2.16364   2.01896
H     2.48884   2.39141   2.11879
H     2.73112   2.04194   3.84505
H     4.19402   0.23778   3.40943
H     4.50289   1.17887   1.93447
H     4.55419  -1.71562   0.86644
H     4.28801  -1.91651   2.61508
H     2.90016  -3.67296   1.84805
H     2.59214  -2.87069   0.28933
H     0.15898  -2.80214   0.38773
H     0.19662  -3.81945   1.85364
H    -1.01825  -2.18762   3.14846
H    -1.84530  -2.13556   1.56927
H    -0.00654  -2.00051  -2.21937
H    -1.01615  -3.24853  -4.11553
H    -1.23712  -2.15391  -6.31554
H    -0.45943   0.16131  -6.62885
H     0.55284   1.39638  -4.75275
H     2.59546  -1.61962  -3.27095
H     4.96490  -2.27619  -3.11298
H     6.51568  -0.98668  -1.69554
H     5.69628   0.95857  -0.42194
H     3.30793   1.60003  -0.55336
H     2.71445   2.20915  -3.69689
H     2.72635   4.64757  -4.09311
H     1.19157   6.11052  -2.84053
H    -0.36119   5.14990  -1.18176
H    -0.38408   2.69678  -0.79248
O    -1.55054   0.11211  -0.55295
