63

Pd    0.00000   0.00000   0.00000
P    -1.03527   1.46808   1.30597
C     1.42674   1.42675  -0.00009
C     1.42976   2.43758   0.96796
C     2.41007   3.42066   0.95948
H     2.39642   4.19801   1.71141
C     3.40582   3.40595  -0.00027
H     4.16951   4.16970  -0.00034
C     0.35642   2.43753   2.02830
H     0.05241   3.44865   2.31566
H     0.70614   1.91598   2.92841
C    -1.84302   2.65658   0.19760
C    -1.96758   2.26749  -1.13550
H    -1.62038   1.26819  -1.43759
C    -2.53509   3.12805  -2.05778
H    -2.63473   2.82836  -3.09077
C    -2.97781   4.37788  -1.65440
H    -3.42176   5.05063  -2.37339
C    -2.85158   4.76971  -0.33105
H    -3.19573   5.74631  -0.02232
C    -2.28394   3.91427   0.59605
H    -2.18101   4.22267   1.62795
C    -2.15693   1.13818   2.68887
C    -3.43160   1.67179   2.82693
H    -3.81294   2.36580   2.09123
C    -4.21533   1.29617   3.90453
H    -5.20720   1.71042   4.01498
C    -3.73924   0.38479   4.83255
H    -4.35913   0.09312   5.66751
C    -2.47745  -0.17092   4.68104
H    -2.11746  -0.89966   5.39277
C    -1.69196   0.19912   3.60798
H    -0.71559  -0.25066   3.45053
P     1.46797  -1.03535  -1.30596
C     2.43751   1.42971  -0.96821
C     3.42053   2.41010  -0.95990
H     4.19784   2.39640  -1.71188
C     2.43759   0.35618  -2.02835
H     3.44877   0.05202  -2.31534
H     1.91637   0.70576  -2.92870
C     2.65645  -1.84307  -0.19758
C     2.26747  -1.96750   1.13556
H     1.26822  -1.62022   1.43771
C     3.12810  -2.53497   2.05780
H     2.82852  -2.63453   3.09083
C     4.37788  -2.97777   1.65433
H     5.05066  -3.42173   2.37327
C     4.76959  -2.85167   0.33092
H     5.74615  -3.19587   0.02212
C     3.91408  -2.28406  -0.59612
H     4.22238  -2.18118  -1.62806
C     1.13806  -2.15701  -2.68884
C     1.67179  -3.43161  -2.82706
H     2.36576  -3.81302  -2.09137
C     1.29633  -4.21518  -3.90483
H     1.71069  -5.20700  -4.01543
C     0.38500  -3.73901  -4.83285
H     0.09349  -4.35877  -5.66797
C    -0.17088  -2.47732  -4.68114
H    -0.89963  -2.11729  -5.39285
C     0.19900  -1.69199  -3.60792
H    -0.25087  -0.71568  -3.45030
O    -1.16670  -1.16675   0.00022
