51

Y     0.00000   0.00000   0.00000
Cl   -1.67930   1.53633   0.94787
Cl   -0.10581  -1.75818   1.72652
N     2.03379  -1.03686  -0.94704
N     3.27834  -0.45306  -0.93779
C     2.21221  -2.34626  -0.97162
C     3.59407  -2.63743  -0.96228
C     4.23669  -1.43141  -0.93318
C     1.09864  -3.31888  -0.99620
C     5.69362  -1.15748  -0.87710
N     0.75370   1.68598  -1.63293
N     2.04160   1.78000  -2.10412
C    -0.04706   2.15371  -2.57486
C     0.71734   2.54820  -3.69463
C     2.02149   2.29448  -3.37334
C    -1.51733   2.22331  -2.43192
C     3.23413   2.48684  -4.20586
N     1.80908   1.17225   1.19437
N     2.83691   1.85838   0.59205
C     1.64845   1.68151   2.40347
C     2.57269   2.73024   2.60286
C     3.29912   2.82212   1.44854
C     0.63311   1.19579   3.36242
C     4.38288   3.77742   1.11143
Si    3.33888   1.30799  -1.00670
C     5.02585   1.97435  -1.52823
H     4.03992  -3.61068  -0.96763
H     1.44521  -4.28132  -1.36368
H     0.70923  -3.44669   0.01735
H     0.28074  -2.95247  -1.61822
H     6.22279  -2.09461  -0.72823
H     5.92827  -0.48971  -0.05113
H     6.04818  -0.70699  -1.80208
H     0.34165   2.95404  -4.61123
H    -1.93095   2.94982  -3.12664
H    -1.79368   2.48280  -1.40902
H    -1.94702   1.24191  -2.65007
H     2.92988   2.75674  -5.21333
H     3.86299   3.28325  -3.81295
H     3.81845   1.57058  -4.25227
H     2.67244   3.33282   3.48208
H     0.88076   1.51711   4.37075
H    -0.34479   1.60250   3.09069
H     0.55679   0.10800   3.32432
H     4.44631   4.52812   1.89431
H     4.17908   4.27552   0.16640
H     5.34560   3.27480   1.04102
H     4.98483   3.03900  -1.72393
H     5.76984   1.81201  -0.75809
H     5.37851   1.48950  -2.43034
O    -0.94780  -0.71139  -1.14808
