35

Pd    0.00000   0.00000   0.00000
N     0.26325   1.50780  -1.36728
N    -0.20549  -1.42486   1.29129
C    -0.21505  -0.38718  -2.82841
C    -0.20327  -0.99627  -4.07312
H    -0.22141  -0.39296  -4.97109
C    -0.17027  -2.37750  -4.16373
H    -0.16121  -2.85619  -5.13218
C    -0.14793  -3.13822  -3.00903
H    -0.12351  -4.21715  -3.07565
C    -0.15241  -2.52471  -1.76379
H    -0.13331  -3.15156  -0.87795
C    -0.19303  -1.13806  -1.64374
C    -0.30321   1.10983  -2.67043
H    -1.36175   1.39829  -2.68720
H     0.20429   1.64368  -3.48791
C    -0.27358   2.80491  -0.95577
H    -1.35574   2.72846  -0.82380
H    -0.05321   3.57542  -1.70630
H     0.16814   3.09308  -0.00057
C     1.72519   1.58802  -1.45767
H     2.13647   1.79346  -0.46319
H     2.12394   0.63655  -1.82714
H     2.03057   2.39137  -2.14250
C    -1.38260  -1.62488   1.88361
H    -2.24328  -1.14228   1.42339
C    -1.51248  -2.39420   3.02608
H    -2.48159  -2.52552   3.48087
C    -0.38095  -2.97875   3.57513
H    -0.44824  -3.57864   4.46969
C     0.84046  -2.76872   2.95204
H     1.74720  -3.19729   3.34871
C     0.88547  -1.98583   1.81270
H     1.82439  -1.78657   1.29824
O     0.30607   0.95568   1.30977
