47

Ru    0.00000   0.00000   0.00000
O     1.59199   2.09554   1.45822
N     0.92221  -1.59396   0.87466
C     0.98247   1.31762   0.89038
C     0.50876  -2.76980   0.51882
C     1.03157  -4.05421   1.07382
C     1.83585  -1.40999   1.92808
C     1.49641  -1.78431   3.22768
C     2.36170  -1.51163   4.26761
C     3.58592  -0.89215   4.04129
C     3.92137  -0.54302   2.73792
C     3.05780  -0.78498   1.68850
C     4.52497  -0.62533   5.17484
H     0.53491  -2.23732   3.42183
H     2.07645  -1.78232   5.27331
H     4.86887  -0.06518   2.53808
H     3.33702  -0.50862   0.68151
H     3.97706  -0.35217   6.07373
H     5.21880   0.17329   4.92525
H     5.10495  -1.52234   5.39535
H     1.26782  -4.74170   0.26367
H     0.28078  -4.52453   1.70928
H     1.92717  -3.88030   1.66647
I    -1.78536  -0.09030   2.04806
N    -0.92276  -1.59403  -0.87392
C    -0.98240   1.31775  -0.89025
C    -0.50914  -2.76984  -0.51820
C    -1.83622  -1.41006  -1.92749
O    -1.59249   2.09553  -1.45760
C    -1.03170  -4.05426  -1.07339
C    -1.49665  -1.78434  -3.22708
C    -3.05815  -0.78500  -1.68802
H    -1.26784  -4.74186  -0.26332
H    -0.28085  -4.52439  -1.70892
H    -1.92733  -3.88040  -1.66601
C    -2.36186  -1.51165  -4.26708
H    -0.53514  -2.23737  -3.42116
C    -3.92163  -0.54301  -2.73751
H    -3.33741  -0.50860  -0.68105
C    -3.58609  -0.89214  -4.04085
H    -2.07654  -1.78235  -5.27276
H    -4.86913  -0.06513  -2.53774
C    -4.52503  -0.62527  -5.17448
H    -3.97702  -0.35213  -6.07332
H    -5.21883   0.17339  -4.92494
H    -5.10503  -1.52225  -5.39505
O     1.08382  -0.05451  -1.24293
