19

Pt    0.00000   0.00000   0.00000
Cl   -1.51516   1.51855  -0.61623
N    -1.30196  -1.60671  -0.52816
H    -2.16351  -1.50759   0.01150
H    -1.56167  -1.51171  -1.51130
C    -0.64608  -2.86111  -0.26438
C    -1.28024  -4.07050  -0.52503
H    -2.28021  -4.06639  -0.93422
C    -0.64054  -5.26784  -0.26375
H    -1.14175  -6.20041  -0.46979
N     1.30257  -1.60669   0.52670
H     2.16401  -1.50740  -0.01313
H     1.56248  -1.51186   1.50980
C     0.64673  -2.86111   0.26284
C     1.28094  -4.07049   0.52340
H     2.28091  -4.06637   0.93259
C     0.64124  -5.26783   0.26215
H     1.14244  -6.20040   0.46822
O     1.12083   1.12259   0.45391
