59

Pt    0.00000   0.00000   0.00000
Cl   -1.17477   1.86938  -0.67090
P    -2.02911  -0.35685   0.99244
P     1.15905  -1.82716   0.69404
F    -4.60786   0.19244   0.27044
F    -4.19661  -0.44404  -2.42599
F    -2.12039  -0.93353  -1.97681
F     2.88888  -3.11472  -0.98092
F     5.08911  -1.54570  -0.19527
F     3.80406  -0.51068   1.22815
C    -2.45095  -1.96749   1.74915
C    -2.09754  -2.19855   3.07607
H    -1.64961  -1.40407   3.65583
C    -2.33489  -3.43021   3.65608
H    -2.06168  -3.59772   4.68732
C    -2.92822  -4.44232   2.91930
H    -3.12395  -5.40052   3.37621
C    -3.26972  -4.22299   1.59533
H    -3.73079  -5.00921   1.01701
C    -3.02252  -2.99613   1.00714
H    -3.27966  -2.83894  -0.03044
C    -2.48558   0.81789   2.29428
C    -1.60750   1.85169   2.60311
H    -0.68962   1.96140   2.03643
C    -1.92286   2.74697   3.60894
H    -1.24347   3.55239   3.84346
C    -3.11208   2.61254   4.30673
H    -3.36246   3.31649   5.08631
C    -3.98283   1.57629   4.00699
H    -4.90848   1.47252   4.55308
C    -3.67207   0.67169   3.00887
H    -4.34702  -0.14142   2.78316
C    -3.41315  -0.20270  -0.19800
C    -3.27197  -0.49585  -1.48583
C     0.31509  -3.36990   0.24454
C    -0.14745  -3.41751  -1.06919
H     0.01838  -2.56504  -1.71849
C    -0.80272  -4.54296  -1.52925
H    -1.15416  -4.58359  -2.54901
C    -1.00539  -5.61820  -0.67777
H    -1.51336  -6.50105  -1.03641
C    -0.56273  -5.56213   0.63319
H    -0.72854  -6.39820   1.29621
C     0.09551  -4.43828   1.10233
H     0.42511  -4.39201   2.12983
C     1.53744  -1.91427   2.46504
C     2.33770  -2.91835   3.00435
H     2.77096  -3.67074   2.35925
C     2.58427  -2.93980   4.36477
H     3.20424  -3.71747   4.78534
C     2.04558  -1.96223   5.18749
H     2.24631  -1.98319   6.24804
C     1.26519  -0.95146   4.65037
H     0.86086  -0.18013   5.28880
C     1.01399  -0.92695   3.29072
H     0.42417  -0.13316   2.84464
C     2.80329  -2.16668  -0.03361
C     3.86494  -1.42906   0.27862
O     1.34805   0.49293  -0.81381
