23

Ti    0.00000   0.00000   0.00000
Cl    1.45672  -1.48421   0.84270
O    -0.32969   0.20040  -1.73424
N     0.82955  -0.52056  -1.69462
C     1.94453   0.14301  -2.35500
C     0.63031  -1.88627  -2.16298
C    -1.08322  -0.21660   2.04917
C    -1.42768   1.04806   1.54044
C    -2.13235   0.85759   0.33133
C    -2.25690  -0.53416   0.11340
C    -1.59487  -1.19966   1.16601
H     1.91385   1.20632  -2.10149
H     1.87607   0.02666  -3.44325
H     2.87783  -0.29067  -1.98936
H    -0.25111  -2.30285  -1.65896
H     1.50702  -2.48178  -1.90151
H     0.47334  -1.90354  -3.24927
H    -0.60583  -0.41298   3.00152
H    -1.25410   1.99909   2.02893
H    -2.59696   1.63313  -0.26257
H    -2.83780  -0.99895  -0.67415
H    -1.58237  -2.26971   1.34019
O     0.96080   1.31138   0.28222
