48

Rh    0.00000   0.00000   0.00000
Cl   -1.36235   0.40133  -1.79325
O    -1.20232   1.12492   1.62443
O    -1.20341  -2.59452  -3.23686
N     0.74914   1.81864  -0.10642
N    -0.92963  -1.71175   0.18951
C     1.38575   2.37932  -1.13020
H     1.48940   1.77672  -2.02338
C     1.89152   3.66628  -1.06942
H     2.40182   4.08168  -1.92336
C     1.72739   4.40252   0.09500
H     2.10916   5.40897   0.17131
C     1.04617   3.82770   1.15423
H     0.86415   4.37656   2.06482
C     0.57034   2.52790   1.02482
C    -0.31602   1.87842   2.03270
C    -0.21474   2.26807   3.44619
C     1.01074   2.59191   4.02794
H     1.91314   2.53901   3.43839
C     1.06995   2.91766   5.36938
H     2.02083   3.15733   5.82126
C    -0.08428   2.93001   6.13759
H    -0.03207   3.19079   7.18420
C    -1.30214   2.59283   5.56796
H    -2.19874   2.59000   6.16958
C    -1.36793   2.25175   4.23127
H    -2.30644   1.98048   3.77117
C     1.27527  -0.91481  -1.22744
C     2.63266  -0.62292  -1.22968
H     3.05616   0.03129  -0.47862
C     3.47081  -1.18377  -2.18107
H     4.52715  -0.95752  -2.15793
C     2.95938  -2.01922  -3.16133
H     3.61143  -2.43826  -3.91299
C     1.61247  -2.31521  -3.16843
H     1.18197  -2.96238  -3.91830
C     0.76771  -1.78381  -2.19242
C    -0.65083  -2.20974  -2.22773
C    -1.30085  -2.41697  -0.88637
C    -2.25615  -3.42634  -0.79905
H    -2.53243  -3.94120  -1.70626
C    -2.82440  -3.72746   0.42301
H    -3.57323  -4.49979   0.50952
C    -2.40509  -3.01234   1.53589
H    -2.80678  -3.21530   2.51581
C    -1.46750  -2.01027   1.37362
H    -1.13522  -1.42197   2.22159
O     0.96669  -0.18559   1.32423
