68

Zr    0.00000   0.00000   0.00000
P     0.50258  -2.44126  -1.33956
P    -0.16808  -2.01549   2.01028
C     0.87179   0.79883  -2.26102
C    -0.53405   0.74625  -2.35412
C    -1.06640   1.71070  -1.47602
C     0.01304   2.37046  -0.84789
C     1.20974   1.80473  -1.33321
C     2.18037  -3.00434  -1.87683
C    -0.48956  -3.08397  -2.75582
C     0.10959  -3.79484  -0.12493
C     0.67702  -3.49648   1.25882
C     0.84111  -1.87714   3.54829
C    -1.66526  -2.83837   2.71138
C     2.06729  -0.49015   0.60303
C     3.23391  -0.63486   0.90538
C     4.64823  -0.79142   1.27028
C     5.15680  -2.16634   0.81612
C     5.46086   0.31243   0.58124
C     4.79535  -0.66729   2.79272
C    -0.43167   1.09922   1.85543
C    -1.69559   1.21630   2.24801
C    -2.25161   1.91858   3.48130
C    -1.16525   2.59785   4.31521
C    -2.96767   0.86990   4.34232
C    -3.26503   2.97153   3.01596
H     1.57319   0.24920  -2.87950
H    -1.10631   0.14005  -3.04749
H    -2.11392   1.97699  -1.38419
H    -0.06285   3.23959  -0.20506
H     2.21143   2.14686  -1.10642
H     0.33322   1.56550   2.49785
H    -2.49601   0.76615   1.65062
H     2.18709  -4.06190  -2.13836
H     2.48744  -2.42081  -2.74349
H     2.88694  -2.81435  -1.07159
H    -0.31255  -4.14883  -2.90550
H    -1.54334  -2.91013  -2.54541
H    -0.21533  -2.54268  -3.66074
H    -0.98049  -3.86813  -0.07219
H     0.50361  -4.74249  -0.51014
H     0.56058  -4.36319   1.91870
H     1.74056  -3.24851   1.18480
H     1.80671  -1.45239   3.28086
H     0.33806  -1.19441   4.23094
H     0.97407  -2.84342   4.03332
H    -2.32973  -3.11966   1.89737
H    -1.40288  -3.71284   3.30611
H    -2.18611  -2.11384   3.33475
H     4.55862  -2.96248   1.25835
H     5.10480  -2.25432  -0.26803
H     6.19297  -2.30496   1.12141
H     6.51823   0.21645   0.82453
H     5.11619   1.29249   0.90548
H     5.34509   0.25045  -0.49950
H     4.27062  -1.47841   3.29579
H     5.84599  -0.70899   3.07677
H     4.37881   0.27724   3.13780
H    -0.43939   1.86927   4.67118
H    -0.64506   3.35195   3.72832
H    -1.61045   3.08619   5.18025
H    -3.74249   0.36735   3.76674
H    -2.25746   0.12113   4.69055
H    -3.43099   1.33637   5.21029
H    -3.71397   3.47715   3.86949
H    -2.77509   3.71646   2.39165
H    -4.05929   2.50720   2.43497
O    -1.43055  -0.79640  -0.20441
