49

Ir    0.00000   0.00000   0.00000
P     1.79802  -0.04668   1.52513
P    -0.73005  -2.17519   0.48364
P    -1.34596   0.60039  -1.86343
Cl    1.10960   1.95964  -0.75496
Si   -1.35332   1.25055   1.48982
Cl   -3.41143   0.91857   1.17194
Cl   -1.18408   0.72496   3.52267
C    -1.27024   3.16832   1.64940
C     3.36752  -0.48228   0.70459
C     1.82481  -1.07191   3.04898
C     2.22367   1.55964   2.28798
C    -1.70594  -2.39485   2.02445
C    -1.84277  -3.01563  -0.69669
C     0.54436  -3.48412   0.67745
C    -0.44798   0.55114  -3.45030
C    -1.96429   2.32363  -1.86673
C    -2.90347  -0.25436  -2.32716
H    -1.47283   3.65667   0.70334
H    -0.28389   3.48433   1.97245
H    -1.99633   3.52228   2.37777
H     3.54372   0.24818  -0.08406
H     3.29146  -1.46507   0.24373
H     4.18750  -0.46321   1.42265
H     1.67993  -2.12688   2.83923
H     1.02554  -0.72789   3.70205
H     2.78283  -0.93396   3.54941
H     2.29319   2.32719   1.52122
H     3.17936   1.46696   2.80361
H     1.45005   1.82809   3.00357
H    -1.12349  -2.07460   2.88476
H    -1.99824  -3.43711   2.14463
H    -2.59763  -1.77477   1.96878
H    -2.81362  -2.52679  -0.69743
H    -1.95804  -4.05452  -0.38593
H    -1.40027  -2.98123  -1.68978
H     1.49944  -3.05871   0.97088
H     0.68282  -3.96745  -0.28709
H     0.21641  -4.21163   1.41925
H    -0.13840  -0.46965  -3.66342
H     0.44111   1.17366  -3.37211
H    -1.09563   0.92121  -4.24550
H    -1.14760   3.00817  -1.65221
H    -2.74227   2.42932  -1.11491
H    -2.37780   2.54938  -2.84938
H    -2.69290  -1.25633  -2.68974
H    -3.39388   0.31282  -3.11756
H    -3.56134  -0.30305  -1.46231
O     0.78019  -1.00624  -1.04943
