46

Pd    0.00000   0.00000   0.00000
Cl    1.90445  -1.16381   0.27912
S    -1.86549   1.39065  -0.59032
N     1.02020   1.61390   0.57956
C     1.46512   2.53305  -0.42875
H     1.59698   3.54578  -0.01440
C     2.82454   1.97964  -0.89542
O     2.97302   1.46617  -1.97788
N     3.82990   2.11360   0.00972
C     5.12730   1.60067  -0.39813
H     4.94823   0.72845  -1.02638
H     5.69560   1.30741   0.48095
H     5.68509   2.33827  -0.97905
C     3.72388   2.75449   1.24842
C     2.63925   2.53641   2.11803
C     1.54676   1.63559   1.75772
C     0.49704   2.53994  -1.61636
H     0.84788   3.27998  -2.33943
H     0.56316   1.54897  -2.10224
C    -0.93965   2.85037  -1.21599
H    -1.51048   3.22423  -2.06582
H    -0.97560   3.59068  -0.41526
C    -2.29678   0.61244  -2.17041
H    -3.00364   1.25083  -2.69549
H    -2.74669  -0.34620  -1.92182
H    -1.39813   0.43736  -2.76109
C     1.06770   0.66194   2.74940
C    -0.28408   0.27834   2.78574
H    -1.03827   0.85129   2.23982
C    -0.68691  -0.74936   3.62209
H    -1.72605  -1.04302   3.64346
C     0.23760  -1.40169   4.42461
H    -0.07782  -2.21963   5.05435
C     1.56208  -0.99950   4.42097
H     2.28144  -1.50002   5.05125
C     1.97784   0.02662   3.59196
H     3.01977   0.30759   3.55877
C     4.77256   3.57294   1.67405
H     5.60797   3.74494   1.01412
C     4.74664   4.17434   2.91506
H     5.56359   4.81212   3.21599
C     3.67842   3.95707   3.77505
H     3.66122   4.42146   4.74852
C     2.64380   3.13772   3.37981
H     1.81047   2.95181   4.04082
O    -0.81036  -1.38180  -0.39553
