57

Ta    0.00000   0.00000   0.00000
F    -1.31591  -1.04127  -0.73372
F     1.39522   0.93772   0.71340
O     1.24003  -2.03607   0.97384
O     1.15335  -0.61973  -1.33559
C     2.29015  -2.50940   0.50070
C     2.81252  -2.18624  -0.79031
C     2.22181  -1.28197  -1.64402
C    -0.00688   3.87513  -0.39648
C     0.77242   5.09112  -0.02320
C     0.34757   2.86578  -1.22381
C     1.58953   2.72784  -2.04750
C    -0.73863   1.84340  -1.24273
C    -1.20648   1.43613  -2.63606
C    -1.79785   2.44793  -0.38032
C    -3.14512   1.82028  -0.20951
C    -1.34178   3.61608   0.12692
C    -2.03022   4.54667   1.06791
C     3.02820  -3.51710   1.30763
C     4.41262  -3.65919   1.24647
C     5.04891  -4.59739   2.03839
C     4.31482  -5.40739   2.88985
C     2.93855  -5.26483   2.96365
C     2.29999  -4.31899   2.18512
C     2.78317  -1.05106  -2.99502
C     4.15463  -1.05066  -3.23815
C     4.63196  -0.81351  -4.51401
C     3.75101  -0.58072  -5.55818
C     2.38558  -0.57762  -5.32317
C     1.90366  -0.80490  -4.04830
H     3.67760  -2.72517  -1.13793
H     0.21484   5.99258  -0.27626
H     0.95468   5.10091   1.05093
H     1.72866   5.11991  -0.53713
H     1.40984   3.05549  -3.07363
H     2.39396   3.33159  -1.63616
H     1.92214   1.69072  -2.07360
H    -1.63630   2.30386  -3.13890
H    -0.37022   1.07703  -3.23266
H    -1.96502   0.65816  -2.58164
H    -3.83429   2.18438  -0.97421
H    -3.07829   0.73686  -0.29029
H    -3.56231   2.06283   0.76452
H    -2.20045   5.51338   0.59353
H    -2.98798   4.14331   1.38280
H    -1.41349   4.71099   1.95048
H     4.99787  -3.01570   0.60748
H     6.12354  -4.69597   1.99403
H     4.81673  -6.14288   3.50085
H     2.36514  -5.88864   3.63288
H     1.22990  -4.18725   2.23666
H     4.84480  -1.20765  -2.42379
H     5.69639  -0.80669  -4.69522
H     4.12926  -0.39869  -6.55286
H     1.69665  -0.39668  -6.13459
H     0.84114  -0.81744  -3.85192
O    -0.91665   0.27122   1.34488
