47

Ni    0.00000   0.00000   0.00000
Cl    1.16232   1.61280   0.64266
S    -2.32539   1.10906   0.66730
S     2.12093  -1.51737  -0.33800
N     0.03874  -0.79347   1.95322
N    -1.18929  -1.57031  -0.74464
C    -2.91433   0.27628   2.13093
C    -4.27362   0.04364   2.29186
C    -4.74723  -0.59452   3.42279
C    -3.86186  -0.99125   4.41052
C    -2.50881  -0.74535   4.25755
C    -2.01348  -0.10870   3.12591
C    -0.53265   0.10793   2.98120
C     1.39894  -1.20250   2.31101
C     1.96178  -2.23640   1.34818
C     1.62204  -2.84595  -1.41932
C     2.60314  -3.25621  -2.31608
C     2.34162  -4.22140  -3.26760
C     1.08332  -4.79491  -3.32350
C     0.10334  -4.37867  -2.44213
C     0.34047  -3.39602  -1.48531
C    -0.81396  -2.98655  -0.60496
C    -2.62113  -1.39873  -0.49247
C    -3.06509   0.04963  -0.62235
H    -0.53927  -1.63825   1.95637
H    -1.01863  -1.29222  -1.72118
H    -0.05426  -0.09041   3.94901
H    -0.30816   1.14005   2.69386
H     1.42107  -1.62767   3.32812
H     2.02951  -0.30831   2.29001
H     2.96548  -2.52250   1.66181
H     1.34320  -3.13028   1.28882
H    -0.59748  -3.20217   0.44858
H    -1.67313  -3.61694  -0.88077
H    -2.84903  -1.75969   0.51927
H    -3.21094  -2.00360  -1.20154
H    -4.15046   0.12283  -0.57389
H    -2.70703   0.48475  -1.55619
H    -4.96413   0.37584   1.53218
H    -5.80619  -0.77003   3.53732
H    -4.22332  -1.48533   5.29949
H    -1.82114  -1.04996   5.03424
H     3.57549  -2.79363  -2.25411
H     3.11389  -4.52545  -3.95714
H     0.85908  -5.55520  -4.05598
H    -0.88150  -4.82106  -2.50359
O    -0.00134   0.64032  -1.52069
