42

Ni    0.00000   0.00000   0.00000
Cl    0.96528   1.12013  -1.55438
N     1.94098  -1.18702   0.56892
N     0.94272  -3.32067  -2.11155
N    -0.06536  -1.42896  -1.16446
N    -2.13996   0.19531  -0.87669
N     0.86779  -5.39595  -3.83560
N    -1.16919  -2.61439  -2.85729
C    -2.19154  -0.64448  -1.91756
C    -0.12841  -3.44908  -2.88757
C     2.11572  -2.06556  -0.42769
C    -3.18139  -0.57424  -2.89210
H    -3.16951  -1.27660  -3.70932
C    -3.05800   1.13983  -0.78001
H    -2.96933   1.80030   0.07242
C     2.98761  -0.86274   1.30982
H     2.80600  -0.13969   2.09435
C    -1.10288  -1.62271  -1.98888
C     0.94366  -2.30465  -1.27227
O    -0.96475  -1.15959   1.66826
C    -0.16884  -4.56168  -3.83838
C    -4.07861   1.29284  -1.71032
H    -4.80524   2.08123  -1.59324
C     3.33672  -2.67533  -0.69461
H     3.40323  -3.38041  -1.50713
C    -4.14298   0.41575  -2.78177
H    -4.92441   0.50540  -3.52187
C     4.42413  -2.33397   0.09164
H     5.39135  -2.77934  -0.08762
C    -0.17030  -6.64155  -5.58421
H    -0.12576  -7.48099  -6.26041
C    -1.25178  -5.77415  -5.58765
H    -2.07555  -5.92257  -6.27089
C     0.86148  -6.40207  -4.68316
H     1.72637  -7.05134  -4.64068
C    -1.25733  -4.71307  -4.69977
H    -2.07060  -4.00746  -4.65621
C     4.25056  -1.40262   1.10436
H     5.07573  -1.10110   1.73004
H    -0.20767  -1.43020   2.19941
H    -1.28891  -0.33925   2.07321
O     0.03544   1.27243   1.04984
