56

Re    0.00000   0.00000   0.00000
P     0.68442  -2.24110   0.24440
Br   -1.43700  -0.82985  -1.92003
O    -1.31073   0.03177   1.00091
O     1.41876   0.00983  -1.08186
O     1.85058  -2.61995  -0.76133
O    -0.29772  -3.44437  -0.07038
O     1.09870  -2.70357   1.72227
N    -0.40934   2.15054  -0.53723
C     2.44481  -0.49982  -1.84639
C     2.97703  -1.79920  -1.12928
C     3.54994   0.56372  -1.97169
H     3.18914   1.37560  -2.60134
H     4.44489   0.14592  -2.42175
H     3.79216   0.97411  -0.99391
C     1.89442  -0.84538  -3.24356
H     1.21642  -1.69454  -3.18781
H     2.70516  -1.06312  -3.93140
H     1.33117   0.00327  -3.62920
C     3.80458  -2.68569  -2.05926
H     4.24223  -3.49315  -1.47710
H     4.60437  -2.11610  -2.52264
H     3.17689  -3.12372  -2.82900
C     3.77928  -1.48114   0.12920
H     3.25237  -0.78183   0.77438
H     4.74974  -1.06639  -0.12798
H     3.92981  -2.40246   0.68885
C    -0.78740  -4.00364   1.16291
C     0.45777  -3.93684   2.09841
C    -1.93550  -3.12773   1.65563
H    -1.57877  -2.12576   1.89994
H    -2.41944  -3.56651   2.52313
H    -2.66419  -3.03038   0.85311
C    -1.28582  -5.41061   0.86539
H    -1.53369  -5.91940   1.79275
H    -0.53899  -5.98195   0.32407
H    -2.17675  -5.34597   0.24685
C     0.12483  -3.85995   3.58122
H    -0.49053  -4.70733   3.87072
H    -0.39578  -2.93539   3.80807
H     1.04653  -3.87631   4.15660
C     1.44718  -5.06554   1.82124
H     1.64525  -5.13289   0.75351
H     1.06495  -6.01383   2.18750
H     2.38134  -4.84142   2.33138
C    -0.88132   2.98550   0.38275
H    -1.02689   2.57770   1.37448
C    -1.17404   4.30663   0.09532
H    -1.55615   4.95014   0.87107
C    -0.96705   4.77453  -1.19289
H    -1.18597   5.79977  -1.45006
C    -0.47685   3.89614  -2.14647
H    -0.30540   4.20964  -3.16382
C    -0.21443   2.59051  -1.77380
H     0.15266   1.87117  -2.49438
O     0.93705   0.51833   1.25530
