34

Pt    0.00000   0.00000   0.00000
N    -1.51147  -1.19247  -0.59844
C    -1.99150  -1.29073  -1.83421
H    -1.51717  -0.66356  -2.57974
C    -3.03308  -2.13779  -2.16905
H    -3.38669  -2.18173  -3.18626
C    -3.60358  -2.91960  -1.17435
H    -4.41776  -3.59145  -1.40074
C    -3.11072  -2.82322   0.11393
H    -3.53230  -3.41682   0.90957
C    -2.06064  -1.95470   0.39626
N     1.36765   0.90459   1.17307
C     2.26296   1.80638   0.78258
H     2.24312   2.07213  -0.26779
C     3.17442   2.38242   1.64975
H     3.88144   3.10918   1.28422
C     3.15523   2.00544   2.98535
H     3.85200   2.43515   3.68921
C     2.22685   1.06831   3.40004
H     2.18560   0.75397   4.43092
C     1.33313   0.51946   2.48540
C    -0.42569  -0.83239   1.67652
C    -1.45821  -1.76815   1.71327
C    -1.75800  -2.36832   2.93406
H    -2.54872  -3.10077   3.01752
C    -1.03113  -2.02629   4.07260
C    -0.00136  -1.08688   4.01467
H     0.53890  -0.84915   4.92042
C     0.31342  -0.47621   2.80433
C    -1.36918  -2.65822   5.39204
H    -0.46585  -2.89286   5.95110
H    -1.94107  -3.57197   5.25254
H    -1.96626  -1.97220   5.99370
O     0.36604   0.71520  -1.44118
