51

Pt    0.00000   0.00000   0.00000
N     1.89727   0.32846  -0.59936
C     2.80206  -0.60204  -0.88712
H     2.47579  -1.63019  -0.78506
C     4.08863  -0.29617  -1.29437
H     4.78617  -1.08718  -1.51637
C     4.45347   1.03793  -1.40814
H     5.44890   1.31228  -1.72312
C     3.51835   2.01225  -1.11074
H     3.76963   3.05814  -1.18858
C     2.23773   1.64897  -0.70557
C     0.00001   1.91860   0.00005
C     1.16843   2.58560  -0.36910
C     1.16132   3.97610  -0.36679
H     2.04487   4.54252  -0.62347
C     0.00002   4.66318   0.00007
C     0.00002   6.13471   0.00008
C     0.61391   6.84906  -1.02660
H     1.07244   6.31512  -1.84663
C     0.61597   8.22911  -1.02553
H     1.07910   8.76451  -1.84189
C     0.00000   8.94263   0.00007
C    -0.00000  10.41236   0.00006
C     1.14970  11.12209  -0.33831
H     2.05347  10.58380  -0.58477
C     1.14979  12.50443  -0.33436
H     2.05077  13.04219  -0.59161
C    -0.00000  13.20004   0.00006
H    -0.00000  14.27997   0.00006
N    -1.89724   0.32845   0.59949
C    -2.80203  -0.60204   0.88722
H    -2.47578  -1.63019   0.78511
C    -4.08860  -0.29618   1.29448
H    -4.78615  -1.08719   1.51647
C    -4.45343   1.03792   1.40831
H    -5.44885   1.31227   1.72331
C    -3.51831   2.01225   1.11092
H    -3.76958   3.05813   1.18879
C    -2.23770   1.64897   0.70571
C    -1.16841   2.58560   0.36923
C    -1.16130   3.97611   0.36692
H    -2.04484   4.54252   0.62359
C    -0.61387   6.84906   1.02677
H    -1.07238   6.31512   1.84680
C    -0.61594   8.22911   1.02568
H    -1.07908   8.76451   1.84205
C    -1.14971  11.12209   0.33842
H    -2.05348  10.58380   0.58488
C    -1.14980  12.50443   0.33448
H    -2.05078  13.04219   0.59172
O    -0.00007  -1.65000  -0.00009
