59

V     0.00000   0.00000   0.00000
Cl   -0.42424  -2.04778  -0.72419
N     0.10754  -0.15462   2.90096
N     0.60999  -0.64103   1.75899
N    -1.94223   0.01966   0.72868
N    -2.14325   0.32577   2.01948
N    -0.46016   2.09310   2.05350
N    -0.11789   1.91566   0.77198
N    -0.52278  -0.25320  -4.26641
O    -0.62572   0.57094  -2.16700
B    -0.99555   0.90500   2.85506
C     1.53071  -1.55757   2.06632
C     2.33084  -2.31240   1.07041
C     1.61305  -1.65622   3.45571
C     0.35572  -0.45189   5.36968
C    -3.43425   0.14531   2.34792
C     0.19161   3.10263   0.26190
C    -3.98931   0.38970   3.70532
C    -0.06586  -0.10056  -3.02360
C    -4.08984  -0.29248   1.21247
C     0.61948   3.32211  -1.14465
C     0.04996   4.07495   1.25742
C     0.69011  -0.75158   3.95269
C    -0.37149   3.39422   2.38386
C    -0.68550   3.93024   3.73466
C    -3.31983  -0.75550  -1.19995
C     0.13742  -1.08950  -5.23368
C    -3.11231  -0.35253   0.21548
C    -1.76315   0.35630  -4.68710
H    -1.34816   1.21880   3.93455
H     1.67284  -2.80823   0.35620
H     2.97318  -1.63040   0.51068
H     2.94652  -3.05245   1.57592
H     2.25630  -2.30097   4.02019
H     0.98468  -1.04819   6.02499
H     0.51614   0.60229   5.58757
H    -0.68778  -0.68383   5.57550
H    -3.46472  -0.20845   4.44800
H    -3.88622   1.43793   3.98101
H    -5.04309   0.12461   3.71876
H     0.88918  -0.61313  -2.83896
H    -5.12886  -0.53534   1.11431
H     1.67797   3.08404  -1.25797
H     0.05312   2.67502  -1.81182
H     0.46400   4.36287  -1.42076
H     0.22911   5.12727   1.16368
H    -0.48801   4.99859   3.75607
H    -1.73193   3.76074   3.98317
H    -0.07511   3.44254   4.49249
H    -2.73709  -0.11190  -1.85454
H    -2.98744  -1.78339  -1.34958
H    -4.37544  -0.68422  -1.45386
H     1.04123  -1.51226  -4.80144
H    -0.52237  -1.90548  -5.53821
H     0.40260  -0.50627  -6.11901
H    -2.09497   1.04041  -3.90836
H    -1.60857   0.91104  -5.61425
H    -2.52962  -0.40466  -4.85143
O     1.53562   0.34415  -0.49590
