48

Pd    0.00000   0.00000   0.00000
P    -0.29778  -1.57873  -1.61365
S    -1.02006   0.42053   2.33334
O    -1.33057   0.48180   3.75030
C    -0.83502  -1.13481   1.54315
C     0.42972   1.13559   1.67853
C    -2.35681   1.27090   1.43047
C    -1.90976  -2.34730  -1.95153
C    -3.02836  -1.83799  -1.30340
C    -4.28041  -2.37327  -1.54632
C    -4.41732  -3.41821  -2.44504
C    -3.30761  -3.91308  -3.11348
C    -2.05572  -3.37652  -2.87689
C     0.34527  -1.40451  -3.30503
C     1.55098  -1.95217  -3.72373
C     1.98534  -1.73999  -5.02070
C     1.22871  -0.97982  -5.89560
C     0.03018  -0.42371  -5.47623
C    -0.40984  -0.63240  -4.18479
C     0.77032  -2.87020  -0.89305
C     1.94434  -2.38579  -0.30535
C     2.82473  -3.25808   0.30575
C     2.53297  -4.61381   0.35226
C     1.36314  -5.09256  -0.21194
C     0.47981  -4.22577  -0.83528
H    -0.09170  -1.71352   2.09599
H    -1.77828  -1.67811   1.50030
H     1.30275   0.76809   2.22562
H     0.38611   2.22455   1.69858
H    -2.07954   1.34668   0.36683
H    -2.46471   2.25835   1.86957
H    -3.27622   0.70944   1.56877
H    -2.90259  -1.00369  -0.61866
H    -5.14933  -1.97523  -1.04270
H    -5.39272  -3.84029  -2.63591
H    -3.42227  -4.71595  -3.82687
H    -1.19137  -3.73948  -3.41625
H     2.14930  -2.53902  -3.04061
H     2.92333  -2.16580  -5.34548
H     1.57703  -0.81222  -6.90369
H    -0.55412   0.18031  -6.15364
H    -1.33507  -0.18792  -3.83963
H     2.17076  -1.30985  -0.34496
H     3.73510  -2.88500   0.75175
H     3.21664  -5.29527   0.83631
H     1.13342  -6.14706  -0.16487
H    -0.43831  -4.60330  -1.26225
O     0.60123   1.12652  -1.04497
