38

W     0.00000   0.00000   0.00000
Cl   -0.46120  -1.72402   1.51477
Cl    2.21757  -0.01819   0.74100
Cl    0.67238   1.37496  -1.78000
O     0.89177  -1.67081  -1.31350
N    -0.63183   1.30498   0.99098
C    -0.83984   2.47228   1.71542
C     0.34493   2.66051   2.68501
C     0.23309   3.98456   3.43036
C     0.16253   5.15009   2.44820
C    -1.02384   4.97961   1.50393
C    -0.91812   3.66507   0.74088
C     0.43794  -3.03091  -1.24149
C     1.33415  -3.88178  -0.34861
C     1.94528  -1.48095  -2.27132
C     1.40166  -1.31361  -3.68570
H    -1.77866   2.40773   2.29001
H     0.36521   1.81967   3.38196
H     1.26388   2.63070   2.09100
H    -0.66561   3.97694   4.05123
H     1.09530   4.10235   4.08897
H     0.06881   6.08998   2.99492
H     1.08516   5.18897   1.86613
H    -1.95200   4.99171   2.07984
H    -1.05812   5.80761   0.79386
H    -1.77700   3.52597   0.08099
H    -0.01299   3.65252   0.12687
H     0.38579  -3.44822  -2.25240
H    -0.57639  -2.99688  -0.82880
H     2.32794  -3.99922  -0.77380
H     1.42345  -3.41822   0.63205
H     0.89091  -4.86527  -0.22845
H     2.63895  -2.32633  -2.21759
H     2.48062  -0.57430  -1.96671
H     0.67433  -0.50392  -3.70689
H     2.21829  -1.06531  -4.35706
H     0.92455  -2.22413  -4.04122
O    -1.33391  -0.42052  -0.87541
