59

Pd    0.00000   0.00000   0.00000
Cl   -0.72614  -2.02613   0.76683
N     0.93131  -0.88295  -1.43977
O     0.85825  -2.74922  -5.85058
O    -1.02684   2.36789   5.99214
C     0.30415  -1.16154  -2.57569
H    -0.74198  -0.87131  -2.66605
C     0.94202  -1.80894  -3.63137
C     2.27972  -2.17238  -3.48486
H     2.79120  -2.67554  -4.29043
C     2.91913  -1.87286  -2.29313
H     3.95347  -2.13656  -2.13945
C     2.21241  -1.22774  -1.29342
H     2.67462  -0.97194  -0.33994
C     0.20677  -2.09507  -4.85715
C    -1.37687  -2.22419  -6.38081
H    -2.18869  -2.95320  -6.27687
C    -0.07501  -2.88433  -6.91734
H    -0.19419  -3.94556  -7.14632
H     0.32660  -2.36490  -7.79196
C    -1.88243  -1.05212  -7.23662
H    -1.05151  -0.35022  -7.37215
C    -3.01661  -0.33371  -6.51146
H    -2.68340  -0.00601  -5.53145
H    -3.86401  -1.00275  -6.38162
H    -3.34104   0.53135  -7.08451
C    -2.35116  -1.55015  -8.60092
H    -3.17972  -2.24538  -8.48349
H    -1.55289  -2.05669  -9.13840
H    -2.69080  -0.71197  -9.20436
C    -0.37146   1.00729   2.63453
H     0.62699   0.59521   2.77509
C    -1.02063   1.63876   3.69308
C    -2.30023   2.15094   3.48523
H    -2.81980   2.64329   4.29230
C    -2.87324   2.00888   2.23210
H    -3.86148   2.39027   2.02979
C    -2.16008   1.36808   1.23429
H    -2.57007   1.23598   0.23293
C    -0.35914   1.74811   4.98746
C     1.10809   1.59407   6.62143
H     1.24834   0.64367   7.14919
C    -0.15772   2.34754   7.11979
H    -0.66407   1.83949   7.94333
H     0.05739   3.38118   7.40534
C     2.40686   2.40783   6.73254
H     2.24535   3.37098   6.23486
C     3.53880   1.67248   6.02091
H     3.73536   0.72107   6.50956
H     4.44750   2.26892   6.04276
H     3.26552   1.47890   4.98812
C     2.76368   2.64880   8.19664
H     3.67491   3.23810   8.26334
H     2.93096   1.70117   8.70421
H     1.97306   3.18213   8.71925
N    -1.00350  -1.78169  -5.05764
N    -0.93450   0.88056   1.43948
N     0.79540   1.29572   5.24329
O     0.52417   1.46276  -0.55506
