52

Ti    0.00000   0.00000   0.00000
C    -1.65865  -0.99123   1.25949
C    -0.48380  -1.77429   1.39958
H     0.03524  -2.00322   2.31996
C    -0.15420  -2.32726   0.14185
H     0.63323  -3.05039  -0.04097
C    -1.13303  -1.91427  -0.77918
H    -1.21536  -2.23236  -1.81115
C    -2.04677  -1.08192  -0.10444
H    -2.94512  -0.67468  -0.55040
C    -2.43762  -0.32571   2.37960
C    -3.88231  -0.08923   1.90909
H    -3.92734   0.69789   1.16049
H    -4.51976   0.18988   2.74366
H    -4.28131  -1.00554   1.47901
C    -2.49878  -1.32020   3.55178
H    -2.93789  -2.25024   3.19668
H    -3.12131  -0.94363   4.35933
H    -1.51474  -1.54563   3.94827
C    -1.80083   1.05312   2.81151
C    -2.70075   1.78994   3.80999
H    -2.97035   1.13661   4.63566
H    -3.60951   2.15764   3.34220
H    -2.17569   2.64394   4.22984
C    -0.41574   0.87394   3.45343
H     0.00400   1.85323   3.68419
H     0.26726   0.36286   2.77220
H    -0.48907   0.31926   4.38545
C    -1.57672   1.89345   1.53912
N    -0.85835   1.50408   0.59444
C    -2.22052   3.23410   1.41476
C    -1.80543   4.31848   2.17952
H    -1.01633   4.19630   2.90764
C    -2.38095   5.56310   1.99490
H    -2.05168   6.39978   2.59387
C    -3.37242   5.73892   1.04481
H    -3.82541   6.70968   0.90817
C    -3.76801   4.67006   0.25829
H    -4.52589   4.80630  -0.49900
C    -3.18668   3.42752   0.43333
H    -3.47207   2.59732  -0.19768
O     1.55589  -0.03805   0.86685
N     1.76927   0.88356  -0.13017
C     2.11792   2.19524   0.39418
H     1.36441   2.48584   1.13160
H     2.11147   2.91395  -0.42701
H     3.10923   2.17577   0.86778
C     2.75682   0.39468  -1.08135
H     3.75805   0.38225  -0.62875
H     2.75190   1.03377  -1.96516
H     2.47732  -0.62207  -1.37840
O    -0.09118   0.38025  -1.60300
