51

Pd    0.00000   0.00000   0.00000
P     1.93879  -1.02067  -0.55447
N     0.95933  -3.71826  -1.49291
N    -0.37579  -2.08114  -0.88868
C     2.10564  -4.54576  -1.74580
H     2.98955  -3.92796  -1.88363
H     1.93927  -5.13346  -2.64988
H     2.27212  -5.23525  -0.91275
C    -0.32912  -4.15126  -1.63360
H    -0.55215  -5.13856  -1.98356
C    -1.14631  -3.12285  -1.25883
H    -2.21724  -3.07311  -1.23481
C     0.89426  -2.44336  -1.02950
C     3.16323  -1.61592   0.75062
C     2.25457  -2.35856   1.73617
H     2.76149  -2.51102   2.68724
H     1.95547  -3.33242   1.34787
H     1.34582  -1.76796   1.92571
C     4.33304  -2.48710   0.31144
H     4.95136  -2.71040   1.18081
H     4.95891  -1.97089  -0.41346
H     4.00481  -3.43323  -0.10893
C     3.69262  -0.34727   1.42588
H     4.20184  -0.60469   2.35353
H     2.87246   0.33312   1.66341
H     4.40021   0.17742   0.78858
C     2.64071  -0.42147  -2.19961
C     3.54360   0.77067  -1.88393
H     3.74898   1.33913  -2.78993
H     4.49555   0.44218  -1.47095
H     3.05710   1.43303  -1.16511
C     3.37777  -1.45406  -3.04633
H     3.76027  -0.96946  -3.94444
H     2.70708  -2.25012  -3.36386
H     4.22451  -1.88521  -2.51703
C     1.39212   0.06201  -2.95128
H     1.67681   0.64763  -3.82401
H     0.76047   0.69621  -2.30267
H     0.78831  -0.78113  -3.29186
C     0.63171   1.65689   0.87636
C     0.96730   2.80563   0.17611
H     0.85028   2.85009  -0.90466
C     1.42390   3.92235   0.86010
H     1.68246   4.81721   0.31143
C     1.53737   3.89711   2.23923
H     1.89035   4.77015   2.76859
C     1.17644   2.75983   2.94206
H     1.24065   2.74510   4.02104
C     0.72037   1.64148   2.26263
H     0.40685   0.75763   2.82164
O    -1.57476   0.47597   0.12689
