56

Re    0.00000   0.00000   0.00000
Br    2.27044   0.33278   0.89415
P     0.93366   0.45814  -2.18476
O    -0.47698   1.54518   0.34570
O     0.33891  -1.65872  -0.59763
O     1.32660  -0.84128  -3.01465
O     2.31328   1.23366  -2.34955
O     0.07363   1.42109  -3.16515
N    -2.19166  -0.27003  -0.79992
C     0.89488  -2.63199  -1.39833
C     0.76577  -2.15955  -2.89230
C     0.16185  -3.96124  -1.14832
H    -0.90653  -3.85522  -1.32274
H     0.30872  -4.24002  -0.10630
H     0.55480  -4.75088  -1.78104
C     2.37667  -2.78211  -1.00486
H     2.94636  -1.91074  -1.32495
H     2.80196  -3.68200  -1.43802
H     2.44580  -2.84719   0.08025
C     1.58179  -3.01415  -3.85992
H     2.64265  -2.91112  -3.65440
H     1.39671  -2.67148  -4.87559
H     1.29734  -4.05917  -3.78529
C    -0.69130  -2.09997  -3.34924
H    -1.29960  -1.57966  -2.61194
H    -1.08885  -3.09842  -3.50895
H    -0.74350  -1.54577  -4.28481
C     2.06244   2.60409  -2.69870
C     0.87450   2.49094  -3.70287
C     1.68990   3.36193  -1.42729
H     0.75640   2.98361  -1.00639
H     1.60158   4.42765  -1.61713
H     2.47096   3.19651  -0.68732
C     3.34462   3.17171  -3.29105
H     3.73706   2.52159  -4.06611
H     4.08975   3.24970  -2.50421
H     3.15865   4.15988  -3.70265
C     0.00815   3.74009  -3.78491
H    -0.47166   3.93955  -2.83189
H    -0.76461   3.59525  -4.53599
H     0.61706   4.59466  -4.06665
C     1.33648   2.06096  -5.09273
H     1.98711   1.19285  -5.01356
H     1.85800   2.87047  -5.59483
H     0.46503   1.78396  -5.68232
C    -2.75428   0.73451  -1.45748
H    -2.09875   1.54684  -1.73759
C    -4.10210   0.74530  -1.77074
H    -4.52441   1.58292  -2.30224
C    -4.88744  -0.32899  -1.38021
H    -5.94421  -0.34691  -1.60025
C    -4.28969  -1.37507  -0.69644
H    -4.85840  -2.22839  -0.36411
C    -2.93430  -1.30201  -0.42299
H    -2.43413  -2.08484   0.13118
O    -0.54497  -0.59924   1.43751
