49

Rh    0.00000   0.00000   0.00000
P     0.11013   1.57318  -1.64804
N     1.97362   3.62762  -1.54707
N     2.40022   1.89078  -3.19804
N     2.61019   1.43740  -0.87913
C     0.56155   3.36662  -1.39380
H     0.01731   3.96490  -2.13290
H     0.24968   3.67199  -0.39149
C     1.04252   1.39120  -3.26511
H     1.07554   0.34021  -3.56933
H     0.51155   1.95438  -4.03974
C     2.43431   3.31254  -2.88660
H     3.47168   3.65125  -2.97988
H     1.82154   3.85135  -3.61305
C     2.72785   2.86319  -0.58618
H     2.32089   3.04891   0.41044
H     3.78121   3.19413  -0.62265
C     3.16752   1.18399  -2.20019
H     4.21773   1.51970  -2.27313
H     3.12560   0.11157  -2.41211
C     3.20929   0.62600   0.16200
H     4.26897   0.87913   0.31351
H     3.13547  -0.42568  -0.11166
H     2.66543   0.79787   1.09236
C    -1.60520   1.84579  -2.28107
H    -2.20976   2.18261  -1.43801
H    -2.02579   0.91289  -2.65295
H    -1.63680   2.59663  -3.07094
C    -0.61300  -1.49552  -1.36476
H    -0.79599  -1.08940  -2.36099
C     0.71874  -1.72705  -1.01342
H     1.46777  -1.43822  -1.74987
C     1.15706  -2.85047  -0.09458
H     2.14477  -3.19966  -0.40500
H     0.47098  -3.69085  -0.21529
C     1.22329  -2.42034   1.38433
H     0.99101  -3.27236   2.03325
H     2.24138  -2.10440   1.62297
C     0.28489  -1.28125   1.71044
H     0.61764  -0.65142   2.53573
C    -1.06240  -1.27442   1.39618
H    -1.71373  -0.60600   1.95855
C    -1.76022  -2.42784   0.71201
H    -2.78388  -2.49780   1.08529
H    -1.25501  -3.35798   0.97586
C    -1.80071  -2.25329  -0.81693
H    -1.86590  -3.23161  -1.30739
H    -2.70382  -1.69786  -1.08506
O    -0.16386   1.30562   0.99549
