40

Cu    0.00000   0.00000   0.00000
S    -2.22512  -1.25182  -3.92195
C    -1.23096  -0.92475  -1.16722
C    -0.21737  -0.61513  -1.82445
C     0.42845  -0.59755  -3.14934
C     1.87142  -1.10085  -3.07867
H     2.30499  -1.14443  -4.07560
H     1.91088  -2.09497  -2.63786
H     2.46790  -0.42838  -2.46554
C     0.38221   0.82116  -3.72124
H     0.85239   0.84501  -4.70210
H     0.90596   1.51099  -3.06320
H    -0.65068   1.14704  -3.82173
C    -0.42127  -1.55190  -4.01009
H    -0.25711  -2.58811  -3.71423
H    -0.17104  -1.43566  -5.06451
C    -2.75538  -2.21574  -2.45867
H    -3.80730  -2.43518  -2.63999
H    -2.18756  -3.14652  -2.47242
C    -2.58733  -1.48784  -1.11145
C    -3.59801  -0.34729  -0.97454
H    -3.52685   0.32420  -1.82813
H    -3.39560   0.21303  -0.06486
H    -4.60850  -0.74697  -0.92495
C    -2.73434  -2.47131   0.04996
H    -3.74026  -2.88449   0.07135
H    -2.54422  -1.95052   0.98597
H    -2.02045  -3.28831  -0.04071
N     1.64610   0.94753   0.38153
C     2.57671   0.32901   1.10658
H     2.55190  -0.75136   1.09151
C     3.52181   1.01209   1.84879
H     4.25074   0.46646   2.42633
C     3.50291   2.39834   1.84260
H     4.21965   2.96305   2.41920
C     2.53986   3.04236   1.08128
H     2.48487   4.11862   1.04470
C     1.63285   2.27960   0.36957
H     0.86164   2.74352  -0.22939
O    -0.65281   0.11409   1.51107
