64

Ti    0.00000   0.00000   0.00000
O    -0.79995   1.48641  -0.19279
O    -0.86336  -0.67712   1.40779
N     2.56199  -0.73956   1.96196
N     2.13204  -2.16468   0.41985
N    -0.30861  -1.27534  -1.32672
C     1.69795  -1.01034   0.96047
C     3.52865  -1.71173   2.03337
C     3.25636  -2.61103   1.06253
C     2.57977   0.45376   2.80890
C     3.78979   1.30193   2.39981
C     2.67693   0.02002   4.27670
C     1.29733   1.26066   2.61265
C     1.57270  -2.80298  -0.74668
C     0.04081  -2.58890  -0.85634
C    -0.76714  -1.18789  -2.70443
C    -2.05237  -2.01654  -2.93769
C    -1.09742   0.27817  -3.01899
C     0.32078  -1.64670  -3.69974
C    -1.07537   2.80314  -0.49076
C    -2.57836   3.08585  -0.33170
C    -0.26264   3.75164   0.40591
C    -2.14871  -0.38527   1.81020
C    -3.16161  -0.69626   0.69803
C    -2.49792  -1.17902   3.08099
H     4.32609  -1.69943   2.74590
H     3.76506  -3.51079   0.78244
H    -0.34036  -3.37555  -1.52272
H    -0.39024  -2.75802   0.14624
H     1.79762  -3.87338  -0.68670
H     2.05609  -2.38740  -1.64140
H     1.22978   1.62939   1.58599
H     1.30285   2.11449   3.28787
H     0.42223   0.64356   2.82495
H     3.61788  -0.48026   4.48962
H     1.86005  -0.65592   4.52221
H    -2.79279  -1.77127  -2.17852
H    -1.85909  -3.08652  -2.89954
H    -2.46585  -1.78957  -3.91743
H     2.60916   0.89233   4.92129
H    -0.20527   0.89567  -2.92277
H    -1.86285   0.64414  -2.33363
H    -1.46798   0.36799  -4.03892
H     3.72837   1.54814   1.34079
H     1.22614  -1.06074  -3.54807
H    -0.02251  -1.49348  -4.72035
H     0.55333  -2.70273  -3.57609
H     4.72063   0.76769   2.57488
H    -0.79046   3.00079  -1.54515
H     3.80987   2.22461   2.97320
H    -3.15583   2.43368  -0.98497
H    -2.79736   4.11976  -0.58528
H    -2.87783   2.89772   0.69870
H     0.80236   3.60008   0.23388
H    -0.49474   3.55555   1.45311
H    -0.50759   4.78518   0.17422
H    -2.22515   0.70018   2.04865
H    -2.86096  -0.15473  -0.20081
H    -4.16541  -0.39360   0.99047
H    -3.15579  -1.76594   0.48834
H    -1.78946  -0.94539   3.87352
H    -2.43941  -2.24544   2.87101
H    -3.50155  -0.93605   3.42067
O     1.29951   0.67824  -0.75747
