35

Pt    0.00000   0.00000   0.00000
I     1.44446  -1.18501   1.90690
I    -0.59186  -2.21562  -1.29366
Cl    4.40017  -0.87662  -3.64926
N     0.47562   1.81412   0.86795
N    -2.06763  -0.21182   1.22704
C     1.73061   0.37632  -1.00917
C     2.40921  -0.40895  -1.91267
H     2.09239  -1.40853  -2.16682
C     3.55335   0.10217  -2.52290
C     4.02129   1.38228  -2.24059
H     4.90535   1.75066  -2.73554
C     3.34977   2.15813  -1.32393
H     3.70094   3.15012  -1.08217
C     2.20400   1.66064  -0.69454
C     1.48095   2.37545   0.30937
H     1.80725   3.36777   0.61705
C    -0.22465   2.44752   1.94663
H    -0.01504   3.52504   1.93660
H     0.16122   2.03644   2.89005
C    -1.73335   2.21468   1.87367
H    -2.21040   2.92099   2.55503
H    -2.08139   2.43998   0.86425
C    -2.13826   0.80103   2.29112
H    -1.48892   0.47780   3.11164
H    -3.16832   0.82839   2.67891
C    -2.24064  -1.52180   1.87076
H    -2.26031  -2.31247   1.12422
H    -3.18548  -1.55088   2.42612
H    -1.42686  -1.72352   2.56504
C    -3.19547  -0.03212   0.30560
H    -3.13907   0.92710  -0.20306
H    -4.14656  -0.08782   0.84948
H    -3.18505  -0.81435  -0.45136
O    -0.70019   0.92887  -1.17023
