44

Pd    0.00000   0.00000   0.00000
O     0.13980   0.38307   2.27729
N    -1.90775   0.92615   0.50353
N    -0.94509   1.27332   4.02086
C    -0.68112   0.14565  -1.84923
C    -0.29804  -0.54502  -2.98828
H     0.54272  -1.22446  -2.96228
C    -0.97984  -0.36403  -4.18398
H    -0.66038  -0.90196  -5.06455
C    -2.05985   0.49653  -4.25145
H    -2.59052   0.63637  -5.18164
C    -2.46534   1.17815  -3.11670
H    -3.31467   1.84769  -3.15830
C    -1.78489   1.00960  -1.92029
C    -2.20049   1.75689  -0.67302
H    -3.26659   2.03633  -0.70566
H    -1.60874   2.68019  -0.60369
C    -2.87233  -0.18423   0.61577
H    -3.07909  -0.55151  -0.39549
H    -3.81514   0.17418   1.06067
C    -2.26470  -1.28839   1.44495
C    -1.35172  -2.16543   0.84597
H    -1.25273  -2.20391  -0.24504
C    -0.65113  -3.07306   1.62881
H     0.06310  -3.73795   1.16606
C    -0.86520  -3.12374   2.99773
H    -0.30514  -3.81883   3.60464
C    -1.80639  -2.29637   3.58297
H    -1.99630  -2.35405   4.64504
C    -2.49737  -1.37642   2.80933
H    -3.22612  -0.72376   3.27347
C    -1.82493   1.67405   1.75516
H    -2.81313   1.75309   2.22895
H    -1.45925   2.68803   1.54731
C    -0.80218   1.03686   2.70556
C    -1.98442   2.09575   4.59472
H    -1.71645   2.31949   5.62513
H    -2.95089   1.58219   4.59871
H    -2.08414   3.04012   4.05865
C    -0.03095   0.64240   4.95046
H    -0.58713   0.02515   5.65774
H     0.53775   1.39738   5.49604
H     0.65583   0.01446   4.38644
O     1.49290  -0.65790  -0.24681
