43

Ru    0.00000   0.00000   0.00000
Cl    1.80418  -0.18986  -1.51586
N    -1.12377  -0.47199  -1.53912
N     0.16990  -1.96692   0.07897
N    -0.10965   1.97247  -0.07018
N    -1.45939   0.27690   1.28269
C    -1.84634   0.36889  -2.28169
H    -1.91978   1.38634  -1.91530
C    -2.46267  -0.00209  -3.45655
H    -3.02688   0.72170  -4.02229
C    -2.32965  -1.31543  -3.90102
H    -2.78725  -1.63483  -4.82395
C    -1.59755  -2.19787  -3.13415
H    -1.47705  -3.22140  -3.44912
C    -1.00019  -1.75867  -1.95244
C    -0.24139  -2.60358  -1.04350
C     0.04495  -3.95281  -1.25346
H    -0.27289  -4.43910  -2.16127
C     0.76211  -4.65096  -0.30233
H     1.00689  -5.69072  -0.45493
C     1.17100  -3.98475   0.84770
H     1.74082  -4.48924   1.61101
C     0.85355  -2.64878   0.99518
H     1.17205  -2.08225   1.86263
C     0.63386   2.76223  -0.84159
H     1.19203   2.26380  -1.62574
C     0.72303   4.12658  -0.64598
H     1.35231   4.72157  -1.28776
C     0.00881   4.70523   0.39731
H     0.06906   5.76582   0.58672
C    -0.77217   3.89395   1.19633
H    -1.32506   4.31211   2.02162
C    -0.81722   2.52231   0.94549
C    -1.60904   1.56062   1.69664
C    -2.48670   1.88817   2.73037
H    -2.58171   2.91290   3.05020
C    -3.22042   0.89587   3.34667
H    -3.89422   1.12949   4.15576
C    -3.06988  -0.41509   2.90062
H    -3.62417  -1.22258   3.35120
C    -2.18489  -0.67261   1.87685
H    -2.03506  -1.68359   1.51575
O     0.99650   0.30235   1.27987
