46

Cu    0.00000   0.00000   0.00000
N     0.03477   1.33068  -1.85168
N    -1.21564   1.44073   0.52748
N    -0.23478  -1.57549   1.63291
N     1.83056  -0.67263   0.16440
C     0.60016   1.15013  -3.02005
H     1.55983   0.65004  -3.01540
C     0.02161   1.56352  -4.22550
H     0.52605   1.36850  -5.15911
C    -1.18078   2.22564  -4.19140
H    -1.65182   2.58095  -5.09721
C    -1.81675   2.42639  -2.95426
C    -1.16889   1.92525  -1.80422
C    -3.07727   3.07163  -2.82002
H    -3.55231   3.45512  -3.71180
C    -3.68040   3.18064  -1.61102
H    -4.64506   3.65810  -1.51463
C    -3.08274   2.63611  -0.43940
C    -1.82291   2.00779  -0.53340
C    -3.70419   2.66399   0.82097
H    -4.67052   3.13438   0.93127
C    -3.06425   2.08505   1.89334
H    -3.51050   2.09140   2.87602
C    -1.81783   1.49079   1.70207
H    -1.27804   1.05051   2.52844
C    -1.30905  -2.02813   2.23158
H    -2.09006  -1.30453   2.42520
C    -1.47224  -3.36598   2.60870
H    -2.38897  -3.68393   3.08054
C    -0.44670  -4.24962   2.37905
H    -0.52272  -5.28679   2.67418
C     0.71501  -3.79642   1.73072
C     0.75496  -2.43792   1.34812
C     1.81659  -4.64144   1.42138
H     1.76912  -5.67608   1.72998
C     2.88683  -4.17028   0.73585
H     3.71582  -4.81845   0.48994
C     2.93499  -2.82109   0.28443
C     1.86767  -1.95048   0.59059
C     3.99145  -2.30959  -0.48870
H     4.82553  -2.94698  -0.74418
C     3.93800  -0.99958  -0.90794
H     4.73343  -0.57286  -1.49959
C     2.84139  -0.21568  -0.55273
H     2.78126   0.82302  -0.84527
O    -0.84769  -1.05457  -0.94435
