47

Nb    0.00000   0.00000   0.00000
Si    1.37865   3.66284   0.01421
Si    0.37641  -3.41798  -0.77763
O    -1.27711  -0.99370   0.48063
C     1.28076   1.97660   0.86306
C     2.31669  -1.28466  -1.46047
H     3.13898  -1.71067  -0.90465
C     0.21577  -0.88268  -2.27628
H    -0.77031  -1.13712  -2.65849
C     0.94880  -1.67867  -1.30770
C     0.33873   1.56990   1.85626
H    -0.44169   2.19896   2.26906
C     2.41817  -0.31913  -2.44759
H     3.32564   0.16306  -2.77211
C     2.21253   0.93627   0.74101
H     3.11760   0.97445   0.14815
C     0.72098   0.30814   2.35777
H     0.27568  -0.20859   3.20029
C     1.13770  -0.06366  -2.95197
H     0.89974   0.61895  -3.75274
C     1.86138  -0.11211   1.62848
H     2.47356  -0.97305   1.86776
C     1.60618   3.42830  -1.86602
H     1.76527   4.38269  -2.35870
H     0.72761   2.96849  -2.31061
H     2.46411   2.79911  -2.09040
C     0.56228  -3.57872   1.11860
H     0.21633  -4.54378   1.47450
H    -0.03992  -2.80548   1.59651
H     1.59348  -3.46344   1.44202
C    -0.17113   4.68967   0.42548
H    -0.13840   5.64785  -0.08328
H    -0.24733   4.88921   1.49070
H    -1.07677   4.18011   0.11125
C     1.49851  -4.68245  -1.66795
H     1.17781  -5.69434  -1.44925
H     2.53286  -4.59059  -1.35503
H     1.46891  -4.55096  -2.74419
C    -1.44611  -3.62679  -1.29550
H    -1.87503  -4.53215  -0.87876
H    -1.56584  -3.67279  -2.37398
H    -2.01949  -2.78038  -0.91918
C     2.93236   4.51911   0.72744
H     3.04898   5.50593   0.29263
H     3.83740   3.95827   0.51597
H     2.86576   4.64004   1.80409
O    -0.92920   1.14886  -0.73431
