46

Pd    0.00000   0.00000   0.00000
C     1.81567  -0.69225  -0.63258
H     2.29281   0.12856  -1.17917
H     1.60372  -1.51404  -1.32631
H     2.46228  -1.03654   0.17796
P     0.02512  -0.23974   2.24118
C    -1.89331  -0.19847   2.36280
C    -2.39037   0.76135   1.26160
H    -3.43474   0.53910   1.03456
H    -1.81547   0.61969   0.31606
H    -2.34413   1.80737   1.55068
C    -2.38403  -1.58319   1.92254
H    -2.19581  -2.34832   2.66815
H    -1.90328  -1.86578   0.97603
H    -3.46105  -1.55440   1.75515
C    -2.51336   0.18282   3.70437
H    -3.59785   0.09303   3.63604
H    -2.28597   1.21203   3.97115
H    -2.17381  -0.46492   4.50712
C     0.76051   1.34135   3.01616
C    -0.01313   2.52622   2.42882
H    -1.00031   2.63162   2.86940
H    -0.09181   2.41887   1.33730
H     0.52981   3.44976   2.62849
C     2.18381   1.47894   2.45909
H     2.55680   2.48251   2.65989
H     2.16458   1.33303   1.37313
H     2.88415   0.77832   2.89723
C     0.75638   1.42122   4.53980
H     1.11378   2.40374   4.84759
H     1.41373   0.67936   4.98447
H    -0.24277   1.28532   4.94462
C     0.67851  -1.80446   3.12713
C     2.18953  -1.65857   3.32804
H     2.43074  -0.91496   4.08138
H     2.67662  -1.40062   2.39054
H     2.59970  -2.60887   3.66920
C     0.47493  -2.97362   2.14833
H     1.24774  -3.72480   2.29970
H     0.54502  -2.62420   1.11172
H    -0.48217  -3.46565   2.28461
C     0.03822  -2.10626   4.48049
H     0.53680  -2.96803   4.92394
H    -1.01596  -2.35044   4.39013
H     0.14449  -1.26885   5.16486
O    -0.39063   0.35225  -1.56391
