61

Au    0.00000   0.00000   0.00000
S     2.94405  -1.40220  -1.46160
S     2.47383  -0.54112  -4.36676
P     0.36460  -0.18809  -2.22645
C     1.92133  -0.65074  -2.70210
C     3.59863   0.06641  -0.60758
C     3.95226  -1.59361  -4.35205
C    -0.35967   0.43459  -3.77374
C    -0.96014  -0.50089  -4.64263
C    -1.08445  -0.14845  -5.97595
C    -0.68842   1.08860  -6.46513
C    -0.28937   2.04317  -5.54507
C    -0.13207   1.75785  -4.19581
C    -1.53495  -1.83563  -4.16349
C    -2.36407  -1.60401  -2.89465
C    -0.42949  -2.86673  -3.89707
C    -2.48840  -2.44825  -5.20158
C    -0.75072   1.35669  -7.95944
C     0.13479   0.32674  -8.67514
C    -2.20233   1.22341  -8.44039
C    -0.24902   2.75466  -8.33095
C     0.18200   2.89005  -3.21840
C     0.16580   4.26913  -3.89324
C    -0.91160   2.90912  -2.14194
C     1.56279   2.72103  -2.57220
H     4.03111   0.74694  -1.33487
H     2.80398   0.54592  -0.04051
H     4.36396  -0.30520   0.06630
H     3.68155  -2.59003  -4.01765
H     4.30702  -1.61749  -5.37748
H     4.70708  -1.16512  -3.70040
H    -1.48544  -0.86474  -6.66997
H    -0.07285   3.03480  -5.89274
H    -2.80582  -2.53991  -2.55966
H    -3.16278  -0.89113  -3.09029
H    -1.75435  -1.21930  -2.07526
H     0.10919  -2.64798  -2.97630
H     0.27956  -2.88359  -4.72234
H    -0.86642  -3.85782  -3.79551
H    -2.99926  -3.29795  -4.75362
H    -1.95085  -2.81431  -6.07294
H    -3.24340  -1.73128  -5.51569
H     1.15836   0.39857  -8.31342
H    -0.21568  -0.68706  -8.50381
H     0.13184   0.51095  -9.74713
H    -2.58591   0.22022  -8.27706
H    -2.26384   1.44107  -9.50433
H    -2.84144   1.92442  -7.90754
H    -0.27637   2.87262  -9.41216
H    -0.87839   3.52786  -7.89647
H     0.77758   2.90069  -8.00317
H     0.98452   4.37544  -4.60110
H    -0.77901   4.45367  -4.39863
H     0.28652   5.03460  -3.12945
H    -1.87931   3.11885  -2.59348
H    -0.69924   3.67778  -1.40223
H    -0.98162   1.95391  -1.62057
H     1.87277   3.65529  -2.10862
H     1.54190   1.96118  -1.79275
H     2.30187   2.44167  -3.32123
O    -0.13081   0.21467   1.63074
