62

Ti    0.00000   0.00000   0.00000
N    -1.00783   1.30513   0.37620
C    -1.82495   2.34779   0.26963
C    -3.18384   2.10066  -0.04377
C    -4.09636   3.11656  -0.20246
C    -3.68762   4.42996  -0.04936
C    -2.36481   4.70093   0.27134
C    -1.41807   3.70820   0.44380
C     0.02296   4.02602   0.81604
C     0.28651   5.52763   0.97998
C     0.34633   3.34456   2.15381
C     0.95777   3.50602  -0.28743
C     1.14645  -1.49465  -1.37259
C    -0.19807  -1.93134  -1.30571
C    -1.02196  -0.89794  -1.83796
C    -0.17988   0.17819  -2.23977
C     1.16638  -0.19500  -1.93893
C     2.37521  -2.27827  -1.01593
C    -0.66817  -3.31204  -0.94403
C    -2.48315  -1.01360  -2.16440
C    -0.64287   1.38122  -3.01462
C     2.41966   0.56038  -2.27976
N    -0.79169  -1.26556   1.38647
C    -2.10475  -1.34223   1.61850
C    -2.65067  -2.18740   2.56785
C    -1.80401  -2.98951   3.32193
C    -0.44059  -2.90983   3.08173
C     0.02209  -2.04236   2.10604
H    -3.49064   1.06767  -0.16254
H    -5.12504   2.88793  -0.44630
H    -4.38976   5.24116  -0.17271
H    -2.08373   5.73535   0.38920
H     1.32841   5.67680   1.25680
H    -0.33281   5.95386   1.76578
H     0.10554   6.06478   0.05152
H     1.39265   3.49674   2.41155
H    -0.27384   3.76302   2.94511
H     0.15540   2.27054   2.09320
H     1.99525   3.69786  -0.01780
H     0.73940   4.01391  -1.22642
H     0.82125   2.42548  -0.42227
H     2.97811  -2.45714  -1.90932
H     2.99536  -1.73021  -0.30332
H     2.11876  -3.24491  -0.58495
H    -0.63861  -3.95840  -1.82564
H    -0.03961  -3.76906  -0.17778
H    -1.69651  -3.30127  -0.57804
H    -2.61074  -1.50042  -3.13579
H    -2.94291  -0.02854  -2.22012
H    -3.01761  -1.61041  -1.42402
H    -1.04716   1.06832  -3.98060
H     0.18068   2.06897  -3.19844
H    -1.42461   1.92079  -2.47563
H     2.93658   0.07239  -3.11102
H     3.10198   0.58403  -1.42760
H     2.19947   1.58737  -2.57012
H    -2.72834  -0.68287   1.02302
H    -3.71848  -2.21267   2.71911
H    -2.19671  -3.65499   4.07533
H     0.25838  -3.51137   3.64163
H     1.08479  -1.95453   1.89951
O     1.38291   0.25730   0.86247
