70

Ru    0.00000   0.00000   0.00000
Cl    2.33794   0.38985  -0.27287
P     0.32295  -1.37264   1.78841
C    -0.38455  -0.59988   3.28628
C    -0.19608   0.77257   3.49106
C    -0.76340   1.37742   4.60323
H    -0.62210   2.43771   4.76339
C    -1.50383   0.64165   5.51318
H    -1.93796   1.12878   6.37349
C    -1.68593  -0.71472   5.31214
H    -2.26210  -1.29556   6.01692
C    -1.13028  -1.33014   4.20416
H    -1.27553  -2.38883   4.04787
C     0.58232   1.60325   2.50549
H     0.76937   2.58932   2.94535
H     1.55022   1.14014   2.27116
N    -0.17604   1.72219   1.24802
H    -1.17825   1.77034   1.48080
C     0.15350   2.90590   0.44038
H     1.24125   2.89906   0.28625
C    -0.55162   2.76134  -0.91985
H    -1.63482   2.69526  -0.74392
N    -0.13249   1.50103  -1.53883
H     0.84881   1.58211  -1.83275
H    -0.71212   1.31458  -2.35673
C    -0.24282   3.96071  -1.82000
H    -0.76049   3.84504  -2.77553
H     0.83239   3.98921  -2.01672
C    -0.67082   5.26270  -1.15187
H    -0.42243   6.10774  -1.79559
H    -1.75307   5.25829  -1.00579
C     0.02546   5.40943   0.19565
H     1.10511   5.46912   0.04334
H    -0.29610   6.33143   0.68257
C    -0.29160   4.21851   1.09589
H    -1.36891   4.17528   1.27920
H     0.20875   4.35798   2.05481
C     2.04485  -1.67780   2.29364
C     2.56996  -1.25727   3.51013
H     1.93893  -0.75777   4.23262
C     3.90510  -1.48177   3.79988
H     4.30885  -1.15251   4.74682
C     4.72140  -2.11827   2.88102
H     5.76462  -2.28315   3.10893
C     4.20037  -2.54038   1.66771
H     4.83714  -3.03430   0.94833
C     2.86898  -2.32099   1.37186
H     2.44789  -2.64285   0.42928
C    -0.42258  -3.02957   1.81355
C     0.26399  -4.17268   2.20372
H     1.29330  -4.10406   2.52423
C    -0.37203  -5.40151   2.17238
H     0.16641  -6.28969   2.47064
C    -1.68924  -5.49801   1.75733
H    -2.17792  -6.46134   1.72908
C    -2.37920  -4.35840   1.37507
H    -3.40816  -4.43070   1.05224
C    -1.74948  -3.12896   1.40132
H    -2.27925  -2.23316   1.10538
O     0.67113  -2.94594  -0.85686
S     0.11403  -1.72077  -1.40425
C     1.07904  -1.38136  -2.92257
H     2.02169  -0.94219  -2.60807
H     0.52751  -0.69716  -3.55772
H     1.25462  -2.32697  -3.42130
C    -1.43112  -2.21316  -2.23539
H    -1.20239  -2.99176  -2.95314
H    -1.87132  -1.34240  -2.70765
H    -2.09585  -2.59047  -1.46643
O    -1.64995   0.01103  -0.00522
