45

Au    0.00000   0.00000   0.00000
N    -1.91570   0.39940   0.78697
N    -2.76732  -0.50247   0.54097
C     1.78553  -0.57574  -0.87343
C     2.59539   0.63175  -1.28664
C     2.13718   1.24334  -2.59101
C     2.47451  -1.51629   0.06824
C     3.06478  -0.92418   1.30962
O     3.58445   1.01756  -0.71705
O     2.55149  -2.70124  -0.19319
C    -0.89632  -1.77527  -0.26946
C    -2.28141  -1.64994   0.01795
C    -3.15232  -2.72988  -0.18188
C    -2.65585  -3.93038  -0.63343
C    -1.29295  -4.08390  -0.88418
C    -0.43548  -2.99099  -0.70740
C    -0.73549  -5.38382  -1.35592
C    -2.36263   1.59017   1.32752
C    -3.64168   2.07416   1.02565
C    -4.05983   3.27661   1.54484
C    -3.23284   4.02150   2.38699
C    -1.97625   3.51652   2.70524
C    -1.53470   2.31826   2.18437
C    -3.69720   5.33762   2.92026
H     1.52229  -1.12232  -1.78444
H     1.06660   1.13418  -2.73894
H     2.66265   0.73930  -3.40240
H     2.40887   2.29554  -2.60935
H     3.38424  -1.71026   1.98895
H     3.92281  -0.32014   1.01096
H     2.36078  -0.25549   1.79898
H    -4.20002  -2.59436   0.03580
H    -3.32258  -4.76675  -0.78399
H     0.61917  -3.14165  -0.89120
H    -1.39362  -6.21113  -1.10216
H    -0.61953  -5.36076  -2.44042
H     0.24826  -5.55473  -0.92483
H    -4.26870   1.50005   0.36019
H    -5.03911   3.65650   1.29215
H    -1.33038   4.07239   3.36812
H    -0.56800   1.92785   2.45493
H    -3.03011   5.70430   3.69556
H    -3.72627   6.07307   2.11606
H    -4.70378   5.25345   3.32668
O     0.52126   1.56043   0.12592
