31

Re    0.00000   0.00000   0.00000
S    -1.23260   0.85756   4.30319
C    -3.99507   0.78391   4.12623
O    -5.08202   0.73354   3.60863
N    -1.17019   0.59240   1.75308
N     1.48225   0.73764   1.38621
C    -0.26211   1.69012  -0.92206
O     2.10325  -1.08883  -1.98025
O    -3.82035   0.91518   5.45042
H    -4.67852   0.94800   5.90077
O    -2.21874  -1.58656  -1.45142
O    -0.41959   2.70548  -1.43537
C    -2.71948   0.72746   3.42292
C    -2.48285   0.59306   2.06966
C     1.90324   0.97124   3.74158
H     1.49634   1.01337   4.74008
C    -3.52114   0.45757   1.02073
H    -4.47166   0.84184   1.37925
H    -3.65119  -0.59618   0.77316
H    -3.20618   0.98088   0.11855
C     1.04161   0.80748   2.65750
C    -0.38975   0.72271   2.80807
C     3.26066   1.05770   3.50655
H     3.95421   1.16790   4.32556
C    -1.41359  -0.94048  -0.96101
C     3.71074   0.99889   2.19376
H     4.76140   1.06375   1.96217
C     2.78908   0.84119   1.17317
H     3.11166   0.79062   0.14139
C     1.29659  -0.65437  -1.29578
O     0.20737  -1.34471   0.93340
