63

Pt    0.00000   0.00000   0.00000
P    -1.81333  -1.38237   0.04615
Cl    1.63224   1.58755  -0.31056
C    -0.95270  -5.52359  -1.75740
H    -0.74633  -6.47816  -2.21794
C    -1.57893  -5.46960  -0.52520
H    -1.85847  -6.38357  -0.02188
C    -1.50252  -3.06962  -0.57114
C    -1.85378  -4.24912   0.06903
H    -2.33895  -4.22601   1.03294
C    -0.85345  -3.13380  -1.80175
H    -0.56045  -2.20540  -2.28087
C    -3.10817  -0.87002  -1.16221
H    -3.37969   0.16516  -0.95350
H    -2.60191  -0.88145  -2.13338
C    -0.58330  -4.34980  -2.39599
H    -0.08682  -4.38897  -3.35490
C    -4.06341  -1.94755   1.79083
H    -4.23921  -2.92654   1.34328
H    -4.30866  -2.03086   2.85314
C    -4.97392  -0.90480   1.13702
H    -5.85802  -0.74592   1.75774
H    -4.44053   0.04562   1.08939
C    -4.33505  -1.77926  -1.19011
H    -4.04202  -2.80051  -0.93289
H    -4.73152  -1.81321  -2.20773
C    -5.45003  -1.29972  -0.26080
H    -5.94069  -0.43347  -0.70951
H    -6.19673  -2.09383  -0.17985
C    -2.58827  -1.55612   1.70357
H    -1.96369  -2.26771   2.25386
H    -2.45672  -0.57449   2.17168
P     1.81326  -1.38229  -0.04600
C     0.95247  -5.52348   1.75756
H     0.74600  -6.47805   2.21806
C     1.57865  -5.46951   0.52533
H     1.85808  -6.38349   0.02197
C     1.50246  -3.06952   0.57135
C     1.85358  -4.24903  -0.06887
H     2.33872  -4.22594  -1.03280
C     0.85341  -3.13369   1.80197
H     0.56051  -2.20528   2.28114
C     3.10790  -0.86977   1.16250
H     3.37949   0.16536   0.95362
H     2.60154  -0.88101   2.13361
C     0.58316  -4.34968   2.39618
H     0.08674  -4.38883   3.35513
C     4.06354  -1.94755  -1.79028
H     4.23921  -2.92655  -1.34269
H     4.30891  -2.03091  -2.85255
C     4.97407  -0.90481  -1.13646
H     5.85830  -0.74608  -1.75703
H     4.44078   0.04567  -1.08898
C     4.33473  -1.77906   1.19068
H     4.04168  -2.80031   0.93352
H     4.73102  -1.81291   2.20836
C     5.44990  -1.29968   0.26147
H     5.94058  -0.43345   0.71016
H     6.19654  -2.09386   0.18070
C     2.58839  -1.55603  -1.70332
H     1.96386  -2.26757  -2.25371
H     2.45698  -0.57438  -2.17143
O    -1.17189   1.13994   0.22299
