46

Zn    0.00000   0.00000   0.00000
Cl   -0.78779   1.52785   1.45710
N    -0.12337   1.34924  -1.79619
N     1.83216   1.07623  -0.09392
N     1.40757  -0.97303   1.46095
C     1.84327   2.17038  -0.84126
C     2.79007   3.17287  -0.62480
C     3.70468   3.00545   0.40171
C     3.64721   1.87291   1.19692
C     2.67139   0.91450   0.91865
C     0.75467   2.27115  -1.82718
C     0.75618   3.42925  -2.77751
C    -1.28427   1.33941  -2.56126
C    -2.20739   2.38239  -2.47802
C    -3.39695   2.30538  -3.17712
C    -3.66669   1.20880  -3.97868
C    -2.74945   0.17275  -4.06125
C    -1.56774   0.22462  -3.34900
C     2.43678  -0.27969   1.74700
C     3.40590  -0.58796   2.84705
C     0.95670  -2.05881   2.20327
C     0.63131  -1.91996   3.55298
C     0.09746  -2.99019   4.24533
C    -0.09386  -4.20679   3.61204
C     0.22953  -4.34451   2.27116
C     0.74061  -3.27681   1.56033
H     2.80242   4.06835  -1.22352
H     4.44576   3.76645   0.59606
H     4.32932   1.75251   2.02199
H     1.73477   3.52930  -3.24373
H     0.53200   4.35231  -2.24446
H     0.00476   3.28415  -3.55030
H    -2.00902   3.21419  -1.81825
H    -4.11626   3.10651  -3.09229
H    -4.59588   1.15504  -4.52582
H    -2.96217  -0.69064  -4.67313
H    -0.85957  -0.58706  -3.38967
H     4.42573  -0.55201   2.46799
H     3.21067  -1.57675   3.25578
H     3.30963   0.14382   3.64808
H     0.74392  -0.95695   4.02890
H    -0.17130  -2.87037   5.28448
H    -0.50776  -5.04101   4.15830
H     0.06817  -5.28663   1.76970
H     0.97309  -3.36896   0.51180
O    -0.75761  -1.33808  -0.59838
