35

Pd    0.00000   0.00000   0.00000
C    -2.90864   0.26217   0.65211
H    -2.62130   1.29399   0.82255
C    -4.19672  -0.19118   0.86846
H    -4.95410   0.48962   1.22082
C    -4.48797  -1.52537   0.62509
H    -5.48105  -1.91614   0.78354
C    -3.47201  -2.35072   0.17169
H    -3.65514  -3.39491  -0.03123
C    -2.20169  -1.82589  -0.02505
C    -1.08652  -2.70944  -0.54044
H    -1.32072  -3.00395  -1.57035
H    -1.06681  -3.63283   0.05536
C     1.03704  -2.28497  -1.68770
C     2.15995  -3.11155  -1.57629
C     2.92521  -3.36165  -2.70542
H     3.79603  -3.99472  -2.62452
C     2.58672  -2.80694  -3.92496
H     3.18613  -3.01284  -4.79838
C     1.49608  -1.96415  -4.01688
H     1.25621  -1.50045  -4.96206
C     0.71076  -1.67943  -2.90715
C     2.56758  -3.68494  -0.24955
H     3.44457  -4.31488  -0.37034
H     1.77790  -4.29327   0.19454
H     2.83055  -2.87939   0.43862
C    -0.39665  -0.67204  -3.03040
H    -0.40942  -0.26007  -4.03621
H    -0.21836   0.16842  -2.32249
H    -1.38137  -1.09672  -2.82787
Cl   -0.31679   2.14219   0.54671
N    -1.93292  -0.53524   0.21500
N     0.22600  -2.05016  -0.52632
H     0.75938  -2.33216   0.29800
O     1.62999   0.22570  -0.12129
