48

W     0.00000   0.00000   0.00000
Cl   -0.90823  -0.60891  -2.06216
Cl   -1.90395   1.42954   0.08881
P     1.05168   1.68515  -1.50545
O     2.29637  -2.06003  -0.44685
N     0.67861   1.00423   1.62536
C     1.54913   0.10317   1.34936
C     2.78467  -0.35605   2.05138
C     2.46545  -1.15959   3.29589
C     3.29502  -1.08296   4.40792
C     3.01461  -1.82523   5.54192
C     1.90082  -2.64679   5.57667
C     1.07452  -2.73034   4.46887
C     1.35624  -1.99475   3.33052
C     0.35833   1.82618   2.78503
C     1.53121   1.99590   3.75322
C    -0.09226   3.20211   2.28200
C    -0.80925   1.10189   3.46878
C     1.38083  -1.35794  -0.36347
C     1.95425   0.94893  -2.91563
C     2.29169   2.87205  -0.85046
C    -0.13027   2.78527  -2.35018
H     3.36066  -0.99662   1.37234
H     3.41174   0.50036   2.31545
H     4.16447  -0.44046   4.38779
H     3.66688  -1.75796   6.40000
H     1.67944  -3.22065   6.46384
H     0.20451  -3.36859   4.48512
H     0.70714  -2.06723   2.46754
H     1.80735   1.05068   4.21108
H     2.39419   2.42295   3.24587
H     1.23243   2.68014   4.54349
H    -0.52398   3.76962   3.10170
H     0.75474   3.75920   1.88531
H    -0.84364   3.08283   1.50486
H    -1.15380   1.67091   4.32801
H    -1.63354   0.99410   2.76491
H    -0.49760   0.11101   3.79854
H     1.28028   0.26913  -3.43581
H     2.29686   1.72715  -3.59703
H     2.80776   0.38328  -2.54470
H     3.10280   2.32352  -0.37286
H     2.69151   3.47972  -1.66119
H     1.81612   3.51980  -0.11645
H    -0.67855   3.36015  -1.60469
H     0.38794   3.45185  -3.03966
H    -0.84181   2.16037  -2.89103
O    -0.97176  -1.07709   0.78617
