56

Zr    0.00000   0.00000   0.00000
P     2.30173   2.56643   0.83682
Si   -2.18974   3.54361   1.66143
Si    1.74692   2.81575  -1.41130
N     1.61591   0.98548   0.74692
N     2.20378  -0.22034   0.82555
C     3.90898  -1.84527   1.09947
C     2.99144  -2.87497   1.33346
H     1.94411  -2.62706   1.43171
C     3.41689  -4.18187   1.45668
H     2.69669  -4.96616   1.63908
C     5.26541  -2.16866   1.00530
H     5.98985  -1.38804   0.82663
C     5.68411  -3.47888   1.13155
H     6.73561  -3.71263   1.05545
C     4.76488  -4.49090   1.35553
H     5.09593  -5.51334   1.45596
C     4.50410   0.60308   1.02509
C     5.01175   1.13269  -0.15884
H     4.65573   0.76177  -1.11097
C     5.97358   2.12646  -0.11786
H     6.35993   2.53205  -1.04069
C     6.43399   2.59768   1.09977
H     7.17936   3.37815   1.12949
C     5.94099   2.06515   2.27984
H     6.30319   2.42809   3.23018
C     4.98333   1.06778   2.24632
H     4.59700   0.64642   3.16348
C     3.47009  -0.46184   0.97525
C     0.16159  -0.07699  -2.51542
H     0.06609   0.78858  -3.16013
C     1.37114  -0.62030  -2.02701
H     2.36607  -0.25704  -2.25420
C     1.06868  -1.84482  -1.38767
H     1.79514  -2.56321  -1.03111
C    -0.32301  -2.05252  -1.48203
H    -0.84233  -2.96390  -1.21478
C    -0.88723  -0.95449  -2.16299
H    -1.92007  -0.85784  -2.47795
C    -1.91699  -1.28445   0.99969
H    -2.67937  -1.79251   0.42102
C    -0.73644  -1.86848   1.51968
H    -0.44847  -2.90760   1.41522
C    -0.12806  -0.92650   2.37607
H     0.72391  -1.10421   3.02078
C    -0.91604   0.24432   2.36908
H    -0.76945   1.09585   3.02188
C    -2.03255   0.01343   1.53377
H    -2.88871   0.66711   1.42131
C    -0.37098   3.53789   1.70652
C     0.75054   3.20530   1.34768
C    -3.90592   3.49165   1.71477
C     3.45652   2.59118  -2.52369
C     3.81304   3.75435  -2.01927
C     2.71144   4.47231  -1.84095
O    -0.89602   1.29518  -0.49209
