64

C    -2.71861  -4.86093  -4.34180
H    -3.39342  -5.10770  -3.51555
H    -2.61191  -5.72968  -4.98984
H    -3.13870  -4.03021  -4.91833
C    -1.25951  -3.51410  -3.02672
C    -2.28132  -2.68413  -2.57808
H    -3.30007  -2.83773  -2.89872
C    -2.00528  -1.63915  -1.70426
H    -2.82052  -1.01045  -1.37054
C    -0.71731  -1.39189  -1.25579
C     0.31930  -2.24370  -1.72046
C     0.04372  -3.28784  -2.59445
H     0.82001  -3.94436  -2.95570
C     1.65068  -1.93902  -1.20598
C     2.84644  -2.60598  -1.46567
H     2.85795  -3.45457  -2.12986
C     4.01887  -2.18051  -0.85757
H     4.94628  -2.70055  -1.04777
C     4.00472  -1.09052   0.00371
C     5.22401  -0.57742   0.70926
H     5.72993   0.14913   0.06386
H     5.92133  -1.39816   0.88749
C     4.84186   0.09525   2.02746
H     5.73374   0.49087   2.51586
H     4.39396  -0.64649   2.69344
C     3.84448   1.22649   1.77890
H     3.55662   1.71940   2.71107
H     4.31405   1.98321   1.14109
C     2.62005   0.69677   1.08810
C     2.77776  -0.45460   0.21316
C     1.04381   2.25063   1.99068
C     1.23785   3.55647   1.51517
C     0.78577   4.60453   2.30022
H     0.91403   5.62198   1.96859
C     0.16089   4.36678   3.51183
H    -0.16679   5.19905   4.11687
C    -0.08321   3.07290   3.93190
H    -0.61288   2.90770   4.85618
C     0.32957   1.99223   3.16885
C     0.03042   0.56037   3.55731
H    -0.00471  -0.04843   2.62595
C     1.13922   0.00528   4.45574
H     2.10352   0.03253   3.95166
H     0.92379  -1.02593   4.72759
H     1.21244   0.59516   5.36793
C    -1.33406   0.41367   4.22727
H    -1.34866   0.87087   5.21380
H    -1.57366  -0.64145   4.34106
H    -2.09838   0.87356   3.60605
C     1.81315   3.75674   0.12820
H     2.66217   3.07564  -0.00519
C     0.74689   3.39168  -0.91561
H     0.44731   2.32960  -0.84189
H     1.12911   3.56583  -1.91982
H    -0.14322   3.99916  -0.76816
C     2.32171   5.17531  -0.12243
H     1.49718   5.88184  -0.16867
H     2.84691   5.21255  -1.07488
H     3.01031   5.48532   0.66107
N     1.65083  -0.88013  -0.37686
N     1.42902   1.15876   1.21279
O    -1.42260  -4.56863  -3.88135
Pd    0.00000   0.00000   0.00000
O    -1.42682   0.74718   0.35832
