57

Ni    0.00000   0.00000   0.00000
P     1.56542   0.31808   1.48167
Cl   -1.59245   1.70406  -0.60496
Cl    1.22266   0.24249  -1.65532
N    -3.01823   3.41950   1.19335
H    -2.37935   2.62791   0.56758
C     0.07582   1.50416   3.64304
C    -1.12351   1.73990   2.98221
H    -1.41395   1.07979   2.18130
C     2.67612  -1.22737   1.53610
C     2.54216   1.95131   1.33798
C     0.95078   0.35674   3.24666
H     0.37028  -0.56641   3.33762
H     1.81420   0.30673   3.91014
C    -1.94967   2.79341   3.33782
C     0.41494   2.33108   4.71014
H     1.31981   2.14865   5.27325
C    -1.58122   3.62792   4.38552
H    -2.21525   4.45375   4.67453
C    -3.23916   2.99302   2.58663
H    -3.85996   3.74064   3.09434
H    -3.78123   2.04515   2.55742
C    -0.40593   3.38460   5.07440
H    -0.12733   4.01901   5.90259
C     3.44798   2.00741   0.10874
H     4.36727   1.45079   0.25398
H     3.71830   3.04483  -0.08414
H     2.93389   1.62774  -0.76963
C     3.35062  -1.48494   2.88408
H     3.93102  -0.62959   3.22155
H     4.03638  -2.32408   2.77008
H     2.63011  -1.75318   3.65233
C     1.74175  -2.39798   1.21692
H     0.95502  -2.49833   1.96292
H     2.30260  -3.33106   1.18346
H     1.27529  -2.25040   0.23713
C     3.74375  -1.16206   0.44396
H     3.32254  -0.79258  -0.48807
H     4.13982  -2.16097   0.26371
H     4.57349  -0.52677   0.74121
C    -4.27793   3.50412   0.45784
H    -4.78217   2.54163   0.48902
H    -4.06398   3.74063  -0.58113
H    -4.93019   4.26940   0.88324
C     1.46433   3.02727   1.16420
H     0.81300   2.76730   0.32830
H     1.92828   3.98790   0.94646
H     0.85904   3.13666   2.05963
C     3.38001   2.24257   2.58064
H     2.76481   2.35180   3.46778
H     3.91318   3.18079   2.42997
H     4.12187   1.46560   2.74927
C    -2.27588   4.67474   1.11396
H    -2.86261   5.49980   1.52316
H    -2.03561   4.87754   0.07368
H    -1.34736   4.58242   1.67170
O    -1.01833  -0.85032   0.98105
