61

Zr    0.00000   0.00000   0.00000
Cl   -1.19130  -1.05299   1.75127
Cl    1.82595   0.45436   1.35477
Si    1.84588   0.71113  -2.79254
Si   -1.69567   2.61939   1.41991
P    -0.25820   2.38471  -1.32721
N     0.47205   1.02157  -1.78834
N    -0.91136   1.89265   0.06316
N    -1.89390  -0.70337  -1.25746
C    -1.55216   2.85866  -2.51451
C    -2.20487   4.08331  -2.45049
C    -3.24833   4.35348  -3.31814
C    -3.64693   3.40143  -4.24347
C    -3.00559   2.17406  -4.29934
C    -1.96185   1.90104  -3.43308
C     0.88697   3.78173  -1.12454
C     1.73331   3.72215  -0.02259
C     2.67602   4.71434   0.17860
C     2.77590   5.76578  -0.72007
C     1.93949   5.81995  -1.82332
C     0.99707   4.82707  -2.03141
C     1.35267  -0.77866  -3.89038
C     2.24923   2.21186  -3.90396
C     3.32710   0.30992  -1.65268
C    -1.88463   4.51197   1.22862
C    -0.62565   2.24145   2.95981
C    -3.41387   1.78143   1.51740
C    -2.08346  -1.80633  -0.98570
C    -2.32802  -3.16821  -0.65297
H    -1.89125   4.81796  -1.72298
H    -3.75363   5.30728  -3.27332
H    -4.46142   3.61670  -4.91926
H    -3.32173   1.43204  -5.01782
H    -1.44305   0.95093  -3.45192
H     1.64182   2.88805   0.66508
H     3.33376   4.66723   1.03339
H     3.50988   6.54223  -0.56335
H     2.02424   6.63560  -2.52646
H     0.35274   4.85943  -2.89839
H     0.93800  -1.58035  -3.28343
H     0.61574  -0.50582  -4.64097
H     2.21899  -1.17199  -4.41095
H     2.71717   3.01187  -3.33965
H     2.92816   1.92791  -4.69972
H     1.34893   2.61080  -4.36130
H     3.51561   1.11596  -0.94445
H     3.12969  -0.59393  -1.07571
H     4.23857   0.14314  -2.21821
H    -2.70032   4.75704   0.55683
H    -2.10261   4.97028   2.18655
H    -0.97752   4.96694   0.84134
H     0.33720   2.74674   2.92332
H    -1.12570   2.55210   3.87194
H    -0.43067   1.17211   3.04201
H    -4.00290   1.97549   0.62438
H    -3.29917   0.70360   1.61312
H    -3.97945   2.13372   2.37317
H    -1.44291  -3.75032  -0.91805
H    -3.20463  -3.54262  -1.17993
H    -2.47744  -3.22968   0.42744
O     0.60202  -1.46954  -0.44779
