39

Ir    0.00000   0.00000   0.00000
N    -1.44069   0.18122  -1.39718
C    -2.65035  -0.28408  -1.13292
H    -2.85549  -0.54961  -0.10421
C    -3.64646  -0.44363  -2.09834
H    -4.60708  -0.83642  -1.80462
C    -3.38359  -0.09731  -3.39809
H    -4.12839  -0.20370  -4.17261
C    -2.10553   0.39850  -3.72430
C    -1.74309   0.76196  -5.03712
H    -2.48245   0.66812  -5.81918
C    -0.48180   1.21128  -5.31444
H    -0.20975   1.48125  -6.32391
C     0.46963   1.31788  -4.29020
H     1.46544   1.66235  -4.52465
C     0.14517   0.98576  -3.00260
H     0.87680   1.04696  -2.20807
C    -1.14360   0.51765  -2.68543
C     1.87760   0.05266   1.03961
H     2.60067  -0.51198   0.45446
C     0.95322  -0.67881   1.78397
H     1.02917  -1.76380   1.74963
C     0.24136  -0.15993   3.01405
H     0.94717  -0.11799   3.84997
H    -0.53227  -0.88146   3.28176
C    -0.41138   1.21912   2.79837
H     0.26475   2.01379   3.11649
H    -1.30400   1.28774   3.42252
C    -0.79804   1.44972   1.35051
H    -1.86733   1.57487   1.19025
C     0.05501   2.07645   0.42786
H    -0.41378   2.66384  -0.36177
C     1.45821   2.54239   0.75191
H     1.40997   3.42987   1.39204
H     1.93331   2.84808  -0.18235
C     2.31915   1.45285   1.42066
H     3.35917   1.59249   1.12214
H     2.27935   1.55162   2.50616
O     0.32941  -1.43113  -0.75223
