36

Pd    0.00000   0.00000   0.00000
Cl   -0.98199  -1.81937   0.87378
N    -0.17051  -0.84735  -1.83276
N     1.09599   1.75398  -0.77487
C    -1.29745  -1.46847  -2.17637
H    -2.09299  -1.46368  -1.44093
C    -1.44582  -2.10918  -3.39378
H    -2.37281  -2.60519  -3.63101
C    -0.38527  -2.10670  -4.28614
H    -0.46066  -2.60687  -5.23941
C     0.77517  -1.43777  -3.93182
H     1.61959  -1.40086  -4.60252
C     0.84860  -0.81483  -2.69403
C     2.03589   0.00127  -2.27570
H     2.40991  -0.37440  -1.31158
H     2.83140  -0.08194  -3.01628
C     1.60232   1.47332  -2.12047
H     0.81596   1.67818  -2.85175
H     2.45282   2.13295  -2.33932
C     2.22183   2.10984   0.11380
H     2.92908   1.27371   0.12840
H     1.81372   2.21600   1.12656
C     2.93332   3.36804  -0.28204
H     2.32577   4.26187  -0.32892
C     4.22826   3.43416  -0.53500
H     4.71649   4.36145  -0.78207
H     4.86179   2.56315  -0.48340
C     0.03917   2.78923  -0.77413
H     0.05750   3.28297   0.19962
H     0.21979   3.53140  -1.56237
C    -1.31473   2.14132  -0.95071
H    -1.83786   1.86593  -0.03033
C    -1.90876   1.98532  -2.12746
H    -1.45626   2.31558  -3.05073
H    -2.88343   1.53610  -2.21621
O     0.04444   0.65999   1.51160
