49

Br    2.29552   0.29450   0.49050
C    -0.22093  -3.05667   0.34959
H     0.85887  -3.18189   0.50126
C    -0.48036  -2.82201  -1.15203
H    -1.55517  -2.65408  -1.29773
C    -0.03789  -4.05195  -1.95105
H     1.03984  -4.18937  -1.82481
H    -0.23751  -3.89654  -3.01250
C    -0.76827  -5.30515  -1.48091
H    -1.83994  -5.18869  -1.65615
H    -0.42647  -6.16557  -2.05766
C    -0.51532  -5.53674   0.00328
H     0.54883  -5.71741   0.16970
H    -1.06144  -6.41766   0.34317
C    -0.95570  -4.31980   0.80963
H    -0.75839  -4.49931   1.86769
H    -2.03209  -4.17045   0.68548
C    -0.17749  -1.82460   2.49989
H     0.91573  -1.85328   2.51088
H    -0.55943  -2.68429   3.06628
C    -2.02686  -0.37062   3.39341
H    -2.74372  -1.15762   3.18818
C    -0.66971  -0.55025   3.13036
C     0.18828   0.49802   3.44785
H     1.25398   0.40062   3.29585
C    -0.34383   1.66309   3.97766
H     0.29454   2.49615   4.22657
C    -1.71439   1.73153   4.17879
H    -2.18016   2.62006   4.58281
C    -0.18135  -1.08844  -2.89767
H    -1.24961  -0.85526  -2.87484
H     0.00092  -1.83433  -3.68264
C     1.98189   0.07073  -3.45210
H     2.48547  -0.88887  -3.48800
C     0.61505   0.15364  -3.19184
C     0.03922   1.42004  -3.19076
H    -1.02240   1.54036  -3.02743
C     0.84611   2.52367  -3.41898
H     0.43076   3.51912  -3.41656
C     2.19785   2.31727  -3.64968
H     2.87143   3.14483  -3.82578
N    -0.62558  -1.86017   1.09791
H    -1.64769  -1.83261   1.10606
N     0.20855  -1.59520  -1.57143
H     1.20945  -1.80121  -1.60841
N    -2.53497   0.73227   3.90503
N     2.75016   1.11702  -3.67838
Zn    0.00000   0.00000   0.00000
O    -1.49612   0.65878  -0.22388
