45

Ru    0.00000   0.00000   0.00000
S    -1.33761   1.76706  -0.26834
S    -0.86355   0.12905   2.20985
O    -1.32291   2.31675  -1.60784
C    -0.95454   3.20400   0.81077
C    -1.10385   3.03208   2.31379
C    -0.48173   1.77429   2.91241
C    -2.68706  -0.00642   2.15511
C    -3.51791   1.08566   1.48947
C    -3.11655   1.45733   0.07144
H    -1.58251   4.00974   0.43573
H     0.08371   3.41306   0.54812
H    -0.59237   3.87543   2.79052
H    -2.15134   3.10691   2.60273
H     0.60521   1.81091   2.81363
H    -0.74010   1.70507   3.96958
H    -3.00048  -0.12597   3.19260
H    -2.82468  -0.95414   1.63033
H    -3.54792   1.97239   2.12122
H    -4.54311   0.70152   1.44885
H    -3.34097   0.64235  -0.61861
H    -3.62651   2.35712  -0.26692
Cl    1.76704   1.43174   0.61076
S     1.33728  -1.76702   0.27025
S     0.86342  -0.12866  -2.20932
O     1.32260  -2.31676   1.60973
C     0.95419  -3.20380  -0.80903
C     3.11616  -1.45723  -0.06970
C     0.48149  -1.77421  -2.91105
C     2.68690   0.00654  -2.15367
C     1.10348  -3.03188  -2.31206
H     1.58217  -4.00955  -0.43401
H    -0.08405  -3.41290  -0.54640
C     3.51752  -1.08552  -1.48774
H     3.34064  -0.64228   0.62035
H     3.62610  -2.35703   0.26861
H    -0.60545  -1.81078  -2.81229
H     0.73991  -1.70527  -3.96820
H     3.00054   0.12599  -3.19107
H     2.82448   0.95429  -1.62891
H     0.59200  -3.87526  -2.78873
H     2.15099  -3.10678  -2.60098
H     3.54756  -1.97227  -2.11947
H     4.54273  -0.70141  -1.44705
O    -1.24051  -1.00184  -0.42421
