61

Pd    0.00000   0.00000   0.00000
Cl   -1.93544  -1.13569  -0.03249
N     1.12315  -1.53513  -0.46683
N     1.88118   0.82626   0.31925
C     2.37667  -1.26361  -0.62305
H     3.06821  -1.97345  -1.07357
C     2.85146  -0.00546  -0.12867
C     4.20602   0.32433  -0.04460
H     4.94540  -0.35678  -0.43514
C     4.56307   1.51236   0.56068
H     5.60056   1.79823   0.64375
C     3.56482   2.31420   1.09354
H     3.80750   3.21910   1.62709
C     2.22639   1.94567   0.95774
C     1.18090   2.77916   1.59001
C     0.96881   4.08258   1.12994
C     1.68662   4.59389  -0.08432
H     1.68303   3.84058  -0.87013
H     2.72237   4.84754   0.14168
H     1.19422   5.48609  -0.46160
C     0.03535   4.87758   1.77544
H    -0.14804   5.87846   1.41354
C    -0.67316   4.39585   2.86033
H    -1.39985   5.02438   3.35280
C    -0.47036   3.10136   3.29798
H    -1.04439   2.71796   4.12856
C     0.44767   2.27234   2.66931
C     0.59732   0.85048   3.13454
H     1.63051   0.50549   3.07255
H    -0.04323   0.19334   2.50953
H     0.25755   0.75285   4.16331
C     0.56438  -2.72210  -0.96001
C     0.40839  -2.90500  -2.34440
C    -0.20935  -4.07074  -2.77127
H    -0.36965  -4.23743  -3.82366
C    -0.62934  -5.03096  -1.86913
H    -1.09456  -5.93597  -2.23011
C    -0.47321  -4.83101  -0.51112
H    -0.81984  -5.58172   0.17995
C     0.10620  -3.66709  -0.03272
C     0.29097  -3.40777   1.44450
H     0.33797  -2.31466   1.59137
C    -0.87813  -3.92391   2.27962
H    -0.78013  -3.57193   3.30442
H    -0.90835  -5.01038   2.29921
H    -1.81163  -3.54613   1.87077
C     1.61496  -4.01757   1.91484
H     1.76569  -3.82248   2.97430
H     2.45475  -3.59707   1.36345
H     1.60833  -5.09449   1.75901
C     0.81081  -1.81677  -3.32066
H     1.73533  -1.34291  -2.96808
C     1.08830  -2.34647  -4.72799
H     1.55097  -1.56430  -5.32622
H     0.16795  -2.64297  -5.22385
H     1.76372  -3.19893  -4.69642
C    -0.28454  -0.74130  -3.37311
H    -0.04805  -0.00541  -4.13933
H    -0.38215  -0.21143  -2.40722
H    -1.24519  -1.19534  -3.60569
O    -0.89556   1.38530  -0.03775
