68

Pt    0.00000   0.00000   0.00000
P     0.66555   1.10538   1.85597
O    -3.53409  -3.82769  -4.34523
O    -3.27377  -2.12699  -5.77435
N    -0.53230  -1.03434  -1.64246
C    -0.52430  -1.73576   0.86956
C    -0.39441  -2.18225   2.17978
H     0.25393  -1.65648   2.86905
C    -1.07440  -3.30215   2.62930
H    -0.94434  -3.63464   3.64947
C    -1.92876  -3.99311   1.78282
H    -2.46675  -4.85781   2.14290
C    -2.08804  -3.57488   0.47743
H    -2.75283  -4.11703  -0.17893
C    -1.39085  -2.45909   0.01493
C    -1.40500  -2.00984  -1.37152
C    -2.19546  -2.56321  -2.39247
H    -2.93486  -3.30801  -2.15015
C    -2.07641  -2.12063  -3.69049
C    -1.05526  -1.17816  -4.00589
C    -0.75563  -0.73399  -5.30668
H    -1.35997  -1.08367  -6.12728
C     0.28626   0.12776  -5.52831
H     0.49923   0.46552  -6.53149
C     1.09934   0.55313  -4.47022
H     1.94350   1.19598  -4.66851
C     0.83098   0.15086  -3.19051
H     1.46099   0.45119  -2.36312
C    -0.27127  -0.68437  -2.92264
C    -3.00182  -2.65223  -4.72323
C    -4.44850  -4.41181  -5.25955
H    -5.29425  -3.74249  -5.43086
H    -4.78063  -5.34136  -4.80450
H    -3.95760  -4.60651  -6.21541
C     2.00057   0.17955   2.68472
C     2.81338  -0.56487   1.83236
H     2.57361  -0.57832   0.76906
C     3.88113  -1.28307   2.33443
H     4.50948  -1.85794   1.67039
C     4.13855  -1.26888   3.69689
H     4.96958  -1.83184   4.09524
C     3.32491  -0.54156   4.54943
H     3.52062  -0.54106   5.61182
C     2.25787   0.18551   4.04844
H     1.61917   0.73893   4.72081
C    -0.61525   1.40782   3.10702
C    -1.85220   0.79782   2.93056
H    -2.01031   0.17952   2.05294
C    -2.86230   0.99288   3.85514
H    -3.82224   0.51866   3.71445
C    -2.64212   1.80184   4.95794
H    -3.42844   1.95379   5.68255
C    -1.41871   2.43209   5.12517
H    -1.25585   3.07765   5.97602
C    -0.40751   2.24417   4.20080
H     0.53559   2.76218   4.31293
C     1.41970   2.75235   1.68063
C     2.79529   2.91281   1.56336
H     3.44734   2.05230   1.62344
C     3.32950   4.17432   1.36723
H     4.39953   4.29479   1.27836
C     2.49709   5.27664   1.27642
H     2.91686   6.25902   1.11694
C     1.12394   5.11806   1.37969
H     0.47240   5.97535   1.29523
C     0.58480   3.86210   1.57829
H    -0.48656   3.73047   1.64133
O    -0.05847   1.48041  -0.72626
