23

Pd    0.00000   0.00000   0.00000
Cl    1.75134   0.37182  -1.30134
N    -1.66797  -0.35641   1.06566
C    -1.76542  -0.36536   2.39453
H    -0.84698  -0.15774   2.93381
C    -2.95554  -0.62158   3.04958
H    -2.98919  -0.61781   4.12665
C    -4.09376  -0.88108   2.29615
H    -5.03888  -1.08567   2.77480
C    -3.99547  -0.87286   0.91784
H    -4.86573  -1.07245   0.31464
C    -2.76534  -0.60568   0.31556
C    -2.55133  -0.57054  -1.13084
C    -3.55392  -0.79405  -2.07539
H    -4.56163  -1.00893  -1.76006
C    -3.24862  -0.73780  -3.42192
H    -4.01440  -0.90784  -4.16279
C    -1.94119  -0.45864  -3.80039
H    -1.66113  -0.40622  -4.83970
C    -0.99261  -0.24595  -2.81747
H     0.04212  -0.02395  -3.05734
N    -1.28449  -0.29871  -1.51844
O     0.96536   0.22897   1.31839
