69

Hg    0.00000   0.00000   0.00000
C    -1.50643  -0.00003   1.60889
C    -1.98201   1.20528   2.12838
C    -2.92544   1.19742   3.15154
H    -3.28343   2.13902   3.54231
C    -3.39530  -0.00002   3.65895
H    -4.12758  -0.00002   4.45294
C    -1.46837   2.49145   1.58594
C    -0.32263   3.06949   2.14567
C     0.15287   4.26224   1.61649
H     1.03695   4.72003   2.03388
C    -0.49009   4.87236   0.55696
H    -0.10635   5.79784   0.15335
C    -1.62241   4.29828   0.01206
H    -2.11557   4.78366  -0.81661
C    -2.12799   3.10708   0.51571
C    -3.36646   2.49163  -0.09623
H    -3.62843   1.59265   0.47177
C    -4.55344   3.45401  -0.02511
H    -5.45150   2.96801  -0.40054
H    -4.37337   4.34470  -0.62149
H    -4.73040   3.75923   1.00372
C    -3.09247   2.07349  -1.54229
H    -2.24729   1.37971  -1.58435
H    -2.85000   2.93478  -2.15968
H    -3.96239   1.57655  -1.96605
C     0.39385   2.42182   3.30963
H    -0.14318   1.50915   3.58919
C     0.40649   3.34948   4.52636
H    -0.60952   3.62370   4.80186
H     0.96307   4.25971   4.31917
H     0.87076   2.84933   5.37348
C     1.81820   2.02800   2.91310
H     1.80331   1.37691   2.03365
H     2.30379   1.49223   3.72566
H     2.41500   2.90370   2.67102
C    -1.98201  -1.20533   2.12838
C    -2.92544  -1.19747   3.15154
H    -3.28344  -2.13907   3.54232
C    -1.46837  -2.49151   1.58595
C    -0.32263  -3.06954   2.14567
C     0.15285  -4.26230   1.61650
H     1.03694  -4.72009   2.03388
C    -0.49011  -4.87243   0.55697
H    -0.10637  -5.79791   0.15336
C    -1.62243  -4.29834   0.01208
H    -2.11559  -4.78372  -0.81659
C    -2.12801  -3.10714   0.51572
C    -3.36647  -2.49169  -0.09621
H    -3.62845  -1.59271   0.47179
C    -4.55345  -3.45407  -0.02510
H    -5.45152  -2.96807  -0.40052
H    -4.37339  -4.34475  -0.62150
H    -4.73041  -3.75930   1.00373
C    -3.09248  -2.07354  -1.54228
H    -2.24731  -1.37975  -1.58432
H    -2.85001  -2.93483  -2.15967
H    -3.96241  -1.57661  -1.96603
C     0.39385  -2.42187   3.30963
H    -0.14318  -1.50920   3.58919
C     0.40650  -3.34953   4.52636
H    -0.60951  -3.62375   4.80187
H     0.96308  -4.25976   4.31917
H     0.87077  -2.84938   5.37348
C     1.81820  -2.02805   2.91308
H     1.80331  -1.37696   2.03364
H     2.30379  -1.49228   3.72565
H     2.41500  -2.90375   2.67101
O     1.17602   0.00012  -1.15735
