39

Pt    0.00000   0.00000   0.00000
C     3.77748   0.04676   3.09722
C     2.57714   0.57879   2.46838
C     2.54921  -0.43482   1.48981
C     3.83527  -0.98152   1.99933
C     0.79491   2.27832   2.04032
H     0.87485   1.99497   0.97499
H     0.83141   3.37026   2.11309
C    -0.56685   1.79970   2.55646
H    -1.36751   2.28820   2.00171
H    -0.66539   1.98502   3.62598
C    -2.53857  -0.19451   2.20786
H    -2.91772   0.49198   1.45077
H    -2.69092  -1.21956   1.86917
C    -3.17335   0.02890   3.56592
H    -2.72719  -0.62459   4.31210
H    -4.23712  -0.18954   3.50790
H    -3.05643   1.06040   3.88909
C     2.14972  -1.89750  -0.34956
H     1.38477  -2.68381  -0.35213
H     3.09936  -2.32930  -0.01550
C     2.30044  -1.33416  -1.76184
H     2.38936  -2.12379  -2.50585
H     3.15914  -0.66809  -1.82259
C     1.51753   1.31899  -2.45516
H     0.66702   2.00024  -2.40135
H     2.20956   1.53041  -1.63849
C     2.19827   1.40858  -3.80709
H     3.03178   0.71276  -3.87496
H     2.58011   2.41537  -3.96051
H     1.49235   1.18170  -4.60207
N     1.91538   1.73120   2.74854
H     2.16019   2.14361   3.63593
N     1.73737  -0.83170   0.53414
O     4.40293   0.31910   4.10311
O     4.60233  -1.82547   1.58477
S    -0.72086  -0.00280   2.28003
S     0.80067  -0.34886  -2.18805
O    -1.33946   0.81475  -0.51433
