33

Au    0.00000   0.00000   0.00000
C     2.82356  -2.47890   1.88213
N     2.12117  -2.15401  -0.20279
N     1.82245  -1.53446   1.85406
C     1.34544  -0.82752   3.01620
H     1.05356  -1.55294   3.78194
H     0.45885  -0.26038   2.71147
C     2.40119   0.10922   3.55081
C     3.95755   1.90316   3.17403
H     4.39944   2.62955   2.50881
C     3.01143  -2.88581   0.55102
C     2.98043   1.04558   2.70364
H     2.65644   1.10567   1.67381
C     1.40473  -1.33287   0.58953
C     3.78588   0.90649   5.34654
H     4.09555   0.85157   6.37951
C     4.36302   1.83364   4.49654
H     5.12507   2.50394   4.86444
C     3.95122  -3.84904   0.21627
H     4.09612  -4.16568  -0.80427
C     3.57788  -3.01792   2.91326
H     3.44676  -2.69850   3.93416
C     2.81036   0.04513   4.87465
H     2.35818  -0.67442   5.54308
C     4.51299  -3.97523   2.57115
H     5.12067  -4.41877   3.34453
C     4.69466  -4.38442   1.25009
H     5.43655  -5.13691   1.03203
C     1.98989  -2.26410  -1.62748
H     2.93279  -2.00974  -2.11494
H     1.21557  -1.57584  -1.96332
H     1.71085  -3.28216  -1.90460
O    -1.13425   1.09575  -0.48509
