40

Pt    0.00000   0.00000   0.00000
S     0.64924  -0.96945   2.57973
N    -0.74877  -1.59998  -0.88622
N     0.75588   1.60605   0.82919
C    -2.04020  -1.92075  -0.88280
H    -2.70340  -1.23336  -0.37146
C    -2.52683  -3.06167  -1.49423
H    -3.58229  -3.27870  -1.46733
C    -1.63307  -3.90663  -2.13606
H    -1.97717  -4.80542  -2.62549
C    -0.29132  -3.57747  -2.13766
H     0.42418  -4.21794  -2.62710
C     0.14128  -2.41302  -1.50504
C     1.52424  -1.95920  -1.43122
C     2.60496  -2.63739  -1.99315
H     2.45623  -3.55999  -2.53478
C     3.88110  -2.12866  -1.85790
H     4.72047  -2.65168  -2.29245
C     4.08348  -0.94739  -1.16114
H     5.08428  -0.55340  -1.05253
C     3.01088  -0.26997  -0.60320
H     3.20330   0.64887  -0.06271
C     1.71242  -0.75161  -0.72636
C     1.09249   2.62905   0.04096
H     1.12136   2.42166  -1.02369
C     1.37952   3.88802   0.52763
H     1.63142   4.68648  -0.15113
C     1.32900   4.09782   1.90040
H     1.54626   5.06825   2.31944
C     1.00245   3.03742   2.71967
H     0.97194   3.15599   3.79057
C     0.70704   1.78891   2.16231
C     0.32986   0.68234   3.01689
C    -0.28047   0.75425   4.24418
H    -0.59732   1.67705   4.69565
C    -0.51858  -0.50628   4.81582
H    -1.01242  -0.64892   5.76029
C    -0.06347  -1.52471   4.03635
H    -0.10542  -2.57804   4.23087
O    -1.44532   0.59959   0.52350
