37

Pt    0.00000   0.00000   0.00000
N     0.19879   1.61841   1.11113
N    -0.19836  -1.61726  -1.07773
O    -0.49858  -4.62324  -3.89658
C     0.36855   2.84450   0.62054
H     0.39554   2.92882  -0.45898
C     0.50298   3.95967   1.42710
H     0.63859   4.93230   0.98277
C     0.45900   3.79589   2.80401
H     0.55985   4.64400   3.46454
C     0.28384   2.52480   3.31671
H     0.24692   2.36971   4.38274
C     0.15482   1.43745   2.45473
C    -0.02921   0.05143   2.86681
C    -0.10845  -0.37156   4.19232
H    -0.03717   0.33808   5.00366
C    -0.28080  -1.71166   4.47654
H    -0.34310  -2.04328   5.50281
C    -0.37322  -2.63026   3.44228
H    -0.50687  -3.67924   3.66766
C    -0.29586  -2.21201   2.12333
H    -0.37139  -2.95484   1.33854
C    -0.12334  -0.86940   1.79985
C    -1.40117  -2.01187  -1.49299
H    -2.25270  -1.49992  -1.05650
C    -1.58940  -3.00793  -2.43053
H    -2.59239  -3.26918  -2.72485
C    -0.47257  -3.64086  -2.97887
C     0.78806  -3.22322  -2.53190
H     1.67049  -3.68839  -2.93862
C     0.87703  -2.22117  -1.59565
H     1.84149  -1.87165  -1.24267
C    -1.74603  -5.06052  -4.39058
H    -1.51739  -5.83808  -5.11695
H    -2.28538  -4.24828  -4.88602
H    -2.36580  -5.48026  -3.59268
O     0.08771   0.75519  -1.46441
