64

Pd    0.00000   0.00000   0.00000
P    -0.98560   0.51692  -1.89386
C     2.24448  -0.63125   2.05784
H     2.29455  -1.72623   2.00723
C     2.52444  -0.12050   3.49060
H     2.74767  -0.92866   4.19127
H     3.32658   0.62081   3.53351
C     0.45321   0.44116   2.86925
C    -0.83995   1.07159   3.01834
C    -1.39676   1.13393   4.29798
H    -0.83511   0.71212   5.11799
C    -2.63463   1.69354   4.51194
H    -3.05751   1.72463   5.50382
C    -3.34518   2.19942   3.42560
H    -4.33478   2.60712   3.57426
C    -2.80485   2.18110   2.16450
H    -3.37363   2.56152   1.32793
C    -1.52413   1.64303   1.91004
C    -1.31975   2.61950  -0.26119
C    -1.59691   3.95763   0.06055
H    -1.59370   4.26371   1.09681
C    -1.83173   4.88338  -0.93387
H    -2.02921   5.90997  -0.66042
C    -1.80359   4.52606  -2.27624
H    -1.98242   5.26665  -3.04048
C    -1.53202   3.21504  -2.62289
H    -1.48871   2.91476  -3.66152
C    -1.29353   2.27786  -1.63171
C    -2.65588  -0.19624  -1.92086
C    -3.64403   0.19751  -2.81777
H    -3.41770   0.92774  -3.58245
C    -4.91570  -0.33608  -2.71240
H    -5.68449  -0.03613  -3.40955
C    -5.20814  -1.24702  -1.70909
H    -6.20418  -1.65720  -1.63076
C    -4.23182  -1.62455  -0.80072
H    -4.46795  -2.32575  -0.01405
C    -2.95604  -1.09930  -0.90190
H    -2.17112  -1.39000  -0.18971
C    -0.20545   0.35437  -3.51382
C    -0.77938  -0.23469  -4.63179
H    -1.78329  -0.63152  -4.58302
C    -0.04701  -0.32306  -5.80403
H    -0.48860  -0.77912  -6.67811
C     1.24942   0.16070  -5.85720
H     1.81458   0.08369  -6.77429
C     1.83182   0.72727  -4.73239
H     2.85013   1.08470  -4.77250
C     1.10814   0.81906  -3.56095
H     1.54683   1.23335  -2.65596
C     3.16785  -0.06711   0.95224
H     2.90639  -0.60999   0.03376
C     2.92782   1.42520   0.70068
H     2.98741   2.00280   1.62271
H     1.93326   1.58630   0.24373
H     3.67974   1.80471   0.01214
C     4.63205  -0.35505   1.27213
H     4.98173   0.22871   2.12105
H     5.25107  -0.10563   0.41405
H     4.77174  -1.40962   1.49683
N     0.86687  -0.22000   1.84868
N    -0.97487   1.67153   0.66828
O     1.31653   0.51509   3.89896
O     0.66902  -1.38450  -0.59839
