59

Pd    0.00000   0.00000   0.00000
P    -1.20094   0.86825   1.63866
C     2.37261  -0.39313  -2.04265
C     2.84247   0.89811  -2.24798
H     2.38602   1.73671  -1.74395
C     3.89322   1.04416  -3.13188
H     4.28514   2.03136  -3.32340
C     4.46558  -0.04660  -3.78577
H     5.28465   0.11975  -4.46860
C     4.01460  -1.33911  -3.58048
H     4.45603  -2.18776  -4.07679
C     2.96383  -1.48772  -2.69675
C     1.38414  -2.20191  -1.40554
C     0.53879  -3.17606  -0.77458
C     0.44016  -4.43490  -1.38473
H     1.00201  -4.60481  -2.29090
C    -0.36132  -5.42269  -0.86996
H    -0.43082  -6.38235  -1.35723
C    -1.10893  -5.15615   0.27679
H    -1.77937  -5.90783   0.66767
C    -1.01355  -3.94355   0.90842
H    -1.62148  -3.74581   1.77925
C    -0.17183  -2.91053   0.43388
C    -0.37896  -1.60472   2.42247
C    -0.06351  -2.58847   3.37516
H     0.43555  -3.49134   3.05380
C    -0.35245  -2.39695   4.70857
H    -0.09215  -3.16681   5.42048
C    -0.96036  -1.22828   5.15282
H    -1.18000  -1.09328   6.20066
C    -1.25435  -0.23177   4.24245
H    -1.70087   0.69845   4.56709
C    -0.96896  -0.41279   2.89621
C    -2.92061   1.42732   1.66999
C    -3.92328   0.72263   2.32643
H    -3.67882  -0.17850   2.87189
C    -5.22732   1.18372   2.27707
H    -6.00790   0.64227   2.79129
C    -5.53307   2.33320   1.56677
H    -6.55270   2.68757   1.53106
C    -4.53666   3.02385   0.89276
H    -4.78093   3.91159   0.32862
C    -3.23175   2.57210   0.93713
H    -2.44306   3.08589   0.40268
C    -0.23240   2.25311   2.30947
C    -0.76483   3.26602   3.09720
H    -1.82552   3.28753   3.30608
C     0.06555   4.25425   3.59752
H    -0.34863   5.04599   4.20450
C     1.42166   4.23235   3.31895
H     2.06346   5.00918   3.70723
C     1.95750   3.21947   2.53726
H     3.01494   3.20902   2.31836
C     1.13482   2.23069   2.03329
H     1.54101   1.42760   1.40017
N     1.37102  -0.89672  -1.24463
N    -0.06838  -1.72762   1.08870
O     2.32551  -2.61582  -2.28362
O    -0.12863   1.38543  -0.88687
