37

Pt    0.00000   0.00000   0.00000
Cl    0.05877   0.10373  -2.26213
S     2.27933   0.09208   0.10335
O     2.88570  -0.86743   1.01048
C     3.25509   0.07834  -1.43666
C     2.67410   1.75038   0.65244
C     1.85940   2.77322   0.19991
C     2.11003   4.06751   0.61984
C     3.16108   4.31722   1.48948
C     3.96073   3.28095   1.94478
C     3.71687   1.98407   1.52629
S     0.07290  -0.10956   2.27994
O     0.98399   0.83384   2.90530
C    -1.47871  -0.08447   3.23708
C     0.59777  -1.77770   2.66679
C     1.45830  -2.03060   3.71611
C     1.86000  -3.33428   3.95207
C     1.40157  -4.35806   3.13823
C     0.54539  -4.08909   2.08093
C     0.14230  -2.78798   1.83808
H     3.17051  -0.91140  -1.87126
H     4.28553   0.30222  -1.18596
H     2.82960   0.81691  -2.10532
H     1.03634   2.54942  -0.47199
H     1.48357   4.87715   0.27836
H     3.35116   5.32634   1.82330
H     4.76902   3.48184   2.63156
H     4.30340   1.14931   1.87785
H    -2.14936  -0.81500   2.80099
H    -1.90257   0.90979   3.15080
H    -1.24249  -0.31420   4.26965
H     1.81311  -1.20524   4.31388
H     2.53631  -3.55016   4.76531
H     1.72254  -5.37249   3.32208
H     0.20136  -4.88901   1.44344
H    -0.51879  -2.54942   1.01046
O    -1.64857  -0.06523   0.02173
