39

C    -0.57532   0.78262   2.81327
C    -0.84058   0.73172   4.28882
H    -1.87530   1.00650   4.49625
H    -0.18156   1.41479   4.81664
H    -0.66735  -0.27707   4.66804
C     2.57470   3.00350   1.85655
H     2.48226   4.06199   1.61612
H     3.59427   2.79685   2.17628
N    -1.25990   0.14942   1.91783
N    -2.30242  -0.61396   2.20474
H    -2.39593  -1.00351   3.13885
H    -2.54119  -1.21786   1.42186
Ni    0.00000   0.00000   0.00000
S     1.46244   2.64860   3.25559
N     0.95595   1.35457   1.07236
C     0.54665   1.51411   2.27365
C     2.12389   2.09199   0.69661
H     1.90040   2.67840  -0.20103
H     2.90615   1.37088   0.43577
C     0.57498   0.78231  -2.81331
C     0.84010   0.73151  -4.28888
H     1.87475   1.00645  -4.49640
H     0.18093   1.41453  -4.81658
H     0.66696  -0.27726  -4.66818
C    -2.57468   3.00347  -1.85606
H    -2.48161   4.06189  -1.61559
H    -3.59445   2.79737  -2.17548
N     1.25966   0.14911  -1.91795
N     2.30228  -0.61408  -2.20491
H     2.39596  -1.00339  -3.13905
H     2.54117  -1.21802  -1.42216
Cl    1.30598  -1.46171   0.77599
S    -1.46297   2.64813  -3.25543
N    -0.95603   1.35429  -1.07220
C    -0.54694   1.51378  -2.27356
C    -2.12397   2.09166  -0.69632
H    -1.90053   2.67785   0.20147
H    -2.90627   1.37049  -0.43570
O    -1.02214  -1.14411  -0.60724
