59

Mo    0.00000   0.00000   0.00000
Br   -2.42472   0.02897  -0.69234
Br    2.34856   0.89558   0.21887
O     0.19440   1.22652  -2.18522
O    -0.46393   2.31927   0.34458
C    -0.21171  -0.57284   1.74430
C    -0.33137  -1.00772   3.05642
C     0.68770  -1.80420   3.63307
C     0.55240  -2.22633   4.94004
H     1.33393  -2.82994   5.37543
C    -0.56104  -1.90173   5.70555
C    -1.55968  -1.12736   5.12852
H    -2.43251  -0.88169   5.71571
C    -1.46742  -0.66947   3.82920
C     1.90229  -2.18742   2.82479
H     1.78544  -1.77442   1.81495
C     2.01543  -3.70740   2.69478
H     2.17470  -4.17453   3.66370
H     2.85153  -3.96232   2.04792
H     1.10647  -4.11507   2.25781
C     3.17099  -1.58736   3.43377
H     3.34488  -1.97324   4.43549
H     3.08572  -0.50420   3.48825
H     4.03077  -1.83176   2.81472
C    -0.69315  -2.38057   7.12908
H    -1.64334  -2.00779   7.52844
C    -0.72013  -3.90960   7.18726
H    -1.52164  -4.29807   6.56269
H    -0.88333  -4.24432   8.20949
H     0.22011  -4.32712   6.83610
C     0.43802  -1.82435   7.99699
H     1.40295  -2.19316   7.65848
H     0.30025  -2.12610   9.03309
H     0.45170  -0.73740   7.95122
C    -2.57963   0.13913   3.20763
H    -2.20031   0.57614   2.27401
C    -3.74383  -0.78736   2.84676
H    -3.40533  -1.56428   2.16482
H    -4.53499  -0.22378   2.35815
H    -4.14720  -1.26119   3.73894
C    -3.05154   1.28022   4.10992
H    -3.58362   0.89951   4.97771
H    -3.72899   1.92939   3.55947
H    -2.20681   1.87273   4.45782
C    -0.05279   0.61090  -3.43366
H    -1.11932   0.39166  -3.56078
H     0.51878  -0.31639  -3.45864
H     0.28150   1.26262  -4.24741
C    -0.43745   2.48340  -2.06536
H    -1.53166   2.36814  -2.11993
H    -0.11056   3.13880  -2.88602
C    -0.04670   3.13131  -0.74104
H     1.04585   3.27392  -0.70183
H    -0.54037   4.11100  -0.66720
C    -0.19359   2.92778   1.59447
H     0.88318   3.09721   1.72128
H    -0.54711   2.24397   2.36620
H    -0.72917   3.88148   1.66556
O     0.38236  -1.42780  -0.73328
