47

Ni    0.00000   0.00000   0.00000
C     1.43807   1.14106  -0.19605
C     2.21817   1.08276  -1.34908
C     3.16838   2.06277  -1.59534
C     3.34081   3.10002  -0.69446
C     2.57803   3.15912   0.45960
C     1.62538   2.18261   0.71023
C     0.77653   2.11717   1.94410
C     1.97947  -0.11153  -2.22309
C     1.23568  -2.77172  -0.89302
C     0.54537  -2.10693  -2.08407
C    -0.33896   0.04344  -2.80983
C     1.09697  -2.64334  -3.40469
C    -1.46528   2.15002   1.09849
C    -0.89009   0.53949   2.83271
C     0.05889  -0.62602   3.11203
C    -1.08771   1.39412   4.08433
N     0.62474  -0.63407  -1.93312
N    -0.41099   1.28541   1.64418
H     3.77044   2.01350  -2.49228
H     4.07597   3.86636  -0.89213
H     2.71973   3.96502   1.16659
H    -0.51900  -2.35905  -2.03596
H    -1.86181   0.11880   2.55428
H     1.36035   1.63444   2.73249
H     0.47816   3.11184   2.29998
H     2.08907   0.12160  -3.29010
H     2.71906  -0.87383  -1.96364
H     2.31831  -2.78614  -0.99917
H     0.98430  -2.21545   0.02164
H     0.88513  -3.79297  -0.77600
H    -0.11628  -0.14037  -3.86741
H    -1.34947  -0.30696  -2.60107
H    -0.29508   1.12031  -2.63535
H     0.59923  -2.18939  -4.25774
H     2.16824  -2.48064  -3.49572
H     0.91516  -3.71407  -3.44487
H    -2.34497   1.55833   0.84627
H    -1.75890   2.92518   1.81596
H    -1.10018   2.64363   0.19561
H     0.35273  -1.08470   2.15720
H     0.96022  -0.30833   3.63215
H    -0.43939  -1.38186   3.71222
H    -0.14773   1.79349   4.45804
H    -1.77114   2.21919   3.89985
H    -1.52120   0.77122   4.86245
O    -1.39177  -0.88339   0.07146
