38

Fe    0.00000   0.00000   0.00000
Cl    1.99673  -0.44448   0.31972
C    -1.37368   3.00819   3.01571
H    -1.70064   3.73349   3.74463
C    -0.04077  -4.62789   0.28175
H     0.38384  -5.14750  -0.56383
C     1.85130   0.71630  -4.18909
H     2.11316  -0.17550  -4.73815
C    -0.05960  -3.24906   0.29885
H     0.34852  -2.68342  -0.52977
C    -1.06007   0.73008   2.35274
C    -0.56386  -5.34730   1.34632
H    -0.54610  -6.42652   1.32929
C    -1.13268  -3.29984   2.46212
H    -1.55285  -2.76146   3.29647
C     1.18089   3.01554  -2.78414
H     0.91205   3.89357  -2.21904
C     2.07471   1.96586  -4.74878
H     2.51069   2.04648  -5.73305
C    -0.60399  -2.56782   1.39184
C     1.29516   0.60744  -2.93186
H     1.11930  -0.36633  -2.49129
C    -1.48994   1.65574   3.30493
H    -1.89835   1.30315   4.23651
C     1.73744   3.11076  -4.04191
H     1.91077   4.08368  -4.47725
C     0.95314   1.75728  -2.21347
C    -0.84534   3.44852   1.81020
H    -0.74933   4.49492   1.57621
C    -1.10953  -4.67802   2.43191
H    -1.51947  -5.23777   3.25937
N     0.10806   2.72508  -0.33240
N    -0.54131   1.17066   1.17075
N    -0.60451  -1.18454   1.38153
N    -1.08917  -0.60881   2.44744
N     0.39798   1.61501  -0.95445
C    -0.42556   2.49784   0.87835
O    -1.23111  -0.41607  -1.01674
