60

Pd    0.00000   0.00000   0.00000
P    -2.13985  -0.08876   0.76010
N     0.67850  -0.62291   4.01200
C    -3.06257   1.14362  -0.21521
C     1.98895  -1.14190   3.71803
C    -1.50316   0.07484   3.44714
C    -0.27951  -0.64790   3.19898
H    -0.27060  -1.18649   2.21921
C    -4.45125   1.23592  -0.19653
H    -5.02807   0.55705   0.41610
C    -1.86090   0.72240   4.75057
H    -1.19031   1.56957   4.90520
H    -1.73955   0.04344   5.59335
C    -5.09045   2.18128  -0.97678
H    -6.16826   2.25304  -0.95842
C    -2.39682   0.37373   2.48593
C    -3.49397   1.25937   3.01153
H    -4.48627   0.93713   2.69331
H    -3.33963   2.27835   2.64618
C    -3.60305  -1.93129  -0.70633
H    -3.30046  -1.32602  -1.55168
C    -3.20709  -1.55677   0.57503
C    -3.57735  -2.33768   1.66317
H    -3.25738  -2.05497   2.65676
C    -2.97202   2.93321  -1.82135
H    -2.39911   3.59192  -2.45733
C    -2.32681   1.98816  -1.04329
H    -1.23315   1.90990  -1.06180
C    -4.75877  -3.82665   0.19725
H    -5.36655  -4.70727   0.05122
C    -3.31443   1.17194   4.53691
H    -3.99453   0.41969   4.94076
H    -3.52960   2.11934   5.02661
C    -4.35309   3.03286  -1.78469
H    -4.85770   3.77054  -2.39105
C    -4.35436  -3.46701   1.47181
H    -4.64535  -4.06827   2.32084
C    -4.37983  -3.05793  -0.89293
H    -4.69055  -3.34061  -1.88825
C     2.18608  -1.65579   2.28596
H     1.58220  -2.54421   2.09434
H     3.23153  -1.91259   2.13450
H     1.91692  -0.85798   1.57458
C    -0.09496  -1.38999  -1.58751
H    -0.49134  -2.39721  -1.51466
H    -0.53853  -0.78682  -2.38341
C     2.93085   0.04734   3.95615
H     2.79414   0.42978   4.96335
H     2.69245   0.84194   3.25244
H     3.96711  -0.25325   3.82298
C     2.27627  -2.25470   4.73316
H     1.62008  -3.10513   4.55833
H     2.10232  -1.88547   5.74000
H     3.30891  -2.58340   4.64856
C     1.74293   0.14409  -1.22027
H     1.38639   0.86154  -1.96614
H     2.75207   0.32549  -0.86484
C     1.24769  -1.16630  -1.23632
H     1.82227  -1.96907  -0.77467
O     0.29283   1.32690   0.93600
