61

Hg    0.00000   0.00000   0.00000
Br   -1.14098   0.09938  -2.20662
S     2.99801   4.67617  -2.85944
S     2.33773   1.68216  -0.83918
S    -0.51571   2.65577   1.11135
O     0.08886   6.55000  -1.69257
O     1.80877   4.85223   2.90969
N     0.94474   6.74626   1.08780
C     1.42193   6.75329  -3.61836
C     2.08754   7.52842  -4.55412
H     2.62379   7.03536  -5.35159
C     2.07444   8.90963  -4.48083
H     2.59601   9.49845  -5.21897
C     1.38856   9.52286  -3.45069
H     1.36828  10.59977  -3.37503
C     0.72094   8.76675  -2.50213
H     0.20112   9.27513  -1.70823
C     0.73067   7.37948  -2.56876
C    -0.68290   7.09997  -0.64447
H    -1.27587   6.25688  -0.27502
H    -1.36291   7.87438  -1.01895
C     0.16511   7.63444   0.48855
C     0.13667   8.96787   0.87965
H    -0.54753   9.66628   0.42233
C     1.00129   9.38390   1.87936
H     1.01729  10.41722   2.19272
C     1.83669   8.45647   2.47646
H     2.52503   8.74737   3.25519
C     1.75109   7.13074   2.06386
C     2.55314   6.03509   2.72879
H     3.37946   5.74011   2.07310
H     2.97168   6.39033   3.67962
C     0.65685   4.90954   3.64691
C     0.27413   5.99504   4.42493
H     0.89382   6.87501   4.48556
C    -0.91224   5.96310   5.13776
H    -1.19121   6.81870   5.73429
C    -1.73056   4.85057   5.08887
H    -2.65660   4.82801   5.64155
C    -1.34683   3.76129   4.32791
H    -1.97364   2.88299   4.28419
C    -0.16128   3.77053   3.60934
C     0.22497   2.58271   2.79575
H    -0.17717   1.66620   3.22670
H     1.30231   2.49418   2.68270
C     0.63134   3.72665   0.17914
H     0.15798   3.82439  -0.79808
H     0.63488   4.70801   0.66187
C     2.05943   3.24814   0.06375
H     2.50208   3.07300   1.04369
H     2.64226   4.00885  -0.45581
C     1.87015   2.10797  -2.55523
H     1.73396   1.14227  -3.04460
H     0.90979   2.62072  -2.53500
C     2.93268   2.90126  -3.28839
H     2.76470   2.83593  -4.36465
H     3.92549   2.51468  -3.05959
C     1.47477   5.26502  -3.70649
H     1.54486   4.93137  -4.74210
H     0.61477   4.81472  -3.21476
O     0.43713  -0.75856   1.39857
