26

Pt    0.00000   0.00000   0.00000
Cl    1.04191   1.22729  -1.57881
N    -0.96902  -1.04426  -1.50469
H    -0.59848  -0.60091  -2.35005
N    -1.05713  -1.23345   1.28629
H    -0.74237  -0.91024   2.20554
C    -2.41506  -0.83935  -1.42489
H    -2.90838  -1.24158  -2.32196
H    -2.60614   0.23701  -1.38085
C    -3.01803  -1.54058  -0.19964
H    -4.10028  -1.37880  -0.22280
C    -2.49623  -1.01393   1.14455
H    -2.68882   0.05928   1.23450
H    -3.04300  -1.53166   1.94637
C    -0.67912  -2.63295   1.09143
H    -1.10437  -3.25864   1.88992
H     0.41142  -2.70331   1.14346
C    -1.18647  -3.17321  -0.25290
H    -0.90345  -4.22866  -0.31570
C    -0.59831  -2.45880  -1.47769
H     0.49363  -2.52619  -1.47050
H    -0.97025  -2.96899  -2.37841
C    -2.70754  -3.03381  -0.29124
H    -3.10729  -3.45204  -1.21665
H    -3.16237  -3.57125   0.54268
O     0.68404   0.72949   1.31242
