26

C     2.19319  -0.93596  -1.70351
H     1.44064  -1.68449  -1.96867
H     3.18847  -1.38926  -1.82175
C     2.10699   0.26857  -2.65125
H     2.31528  -0.08971  -3.66429
C     0.73327   0.95327  -2.67141
H     0.76281   1.74919  -3.43012
H    -0.04514   0.23804  -2.95351
C     1.41808   2.41574  -0.84957
H     1.12291   2.73295   0.15507
H     1.49343   3.30958  -1.48621
C     2.79726   1.74264  -0.81454
H     3.51988   2.48357  -0.45843
C     2.87787   0.52602   0.11811
H     3.91862   0.16979   0.12055
H     2.60933   0.81021   1.13997
C     3.15712   1.29560  -2.23059
H     3.15478   2.14726  -2.91311
H     4.15473   0.85345  -2.25069
Cl   -0.19530  -1.71511   1.45116
N     1.97582  -0.54208  -0.31183
H     2.07664  -1.35508   0.30232
N     0.39031   1.51051  -1.36320
H    -0.50952   1.99625  -1.41446
Pt    0.00000   0.00000   0.00000
O    -1.54485   0.56343   0.13599
