62

Re    0.00000   0.00000   0.00000
Cl    1.14923  -1.58369  -1.27008
Cl   -0.18386  -1.47050   1.76442
P    -1.21074   1.48934   1.51006
N     1.83482   0.70857   0.66752
N     0.44389   1.46347  -1.33591
C     2.54594   0.23423   1.69290
H     2.10260  -0.59281   2.23135
C     3.76632   0.74980   2.06282
H     4.29441   0.32395   2.89980
C     4.30707   1.81782   1.34121
H     5.26334   2.23572   1.61462
C     3.59849   2.31297   0.27587
H     3.96891   3.12907  -0.32423
C     2.36045   1.73941  -0.05265
C     1.55503   2.13780  -1.14480
H     1.85945   2.92806  -1.81898
C    -0.34805   1.82580  -2.44057
C    -0.75556   3.14568  -2.61720
H    -0.47081   3.89469  -1.89163
C    -1.55502   3.48041  -3.69400
H    -1.88134   4.50249  -3.81687
C    -1.93752   2.51094  -4.60568
H    -2.56386   2.77600  -5.44419
C    -1.51445   1.20153  -4.44195
H    -1.80324   0.44543  -5.15567
C    -0.72391   0.85312  -3.36408
H    -0.37518  -0.16073  -3.23335
C     0.02202   2.18892   2.64282
C     0.79668   3.27599   2.24334
H     0.57737   3.77466   1.30816
C     1.84299   3.71118   3.03484
H     2.43572   4.55904   2.72373
C     2.13686   3.05527   4.21954
H     2.95551   3.39673   4.83529
C     1.38911   1.95500   4.60604
H     1.62870   1.43285   5.52035
C     0.34071   1.51501   3.81869
H    -0.23058   0.64226   4.10163
C    -2.10956   2.90988   0.80806
C    -2.15612   4.15999   1.41602
H    -1.60155   4.34680   2.32470
C    -2.91456   5.17023   0.85239
H    -2.94340   6.14258   1.32257
C    -3.63909   4.93772  -0.30574
H    -4.22890   5.73176  -0.73940
C    -3.61327   3.68653  -0.89932
H    -4.18334   3.49755  -1.79634
C    -2.85198   2.67346  -0.34570
H    -2.82808   1.69193  -0.80056
C    -2.51576   0.83972   2.59748
C    -3.22420  -0.30112   2.24226
H    -2.96946  -0.83243   1.33683
C    -4.25109  -0.75301   3.05272
H    -4.79420  -1.64501   2.77950
C    -4.57893  -0.06665   4.20946
H    -5.37745  -0.42339   4.84319
C    -3.88501   1.08269   4.55474
H    -4.14483   1.62301   5.45343
C    -2.85913   1.54109   3.75084
H    -2.31841   2.43798   4.02029
O    -1.41707  -0.47502  -0.69913
