59

C     1.34682   1.05249  -1.85188
C     2.20454   1.60254  -0.88224
C     2.35017   2.97926  -0.81261
H     3.01253   3.40494  -0.07050
C     1.65950   3.81094  -1.68135
H     1.78057   4.88149  -1.61026
C     0.81575   3.26455  -2.63293
H     0.27474   3.90761  -3.31206
C     0.66176   1.89154  -2.72405
H     0.02473   1.45500  -3.48124
C     2.88880   0.66396   0.07664
H     3.72795   1.15222   0.58840
H     3.27493  -0.19209  -0.48933
C     2.18360  -1.16688   1.53386
H     3.14343  -1.19871   2.06828
H     2.22608  -1.86145   0.68736
H     1.38779  -1.48335   2.21871
C     1.84274   1.11382   2.17909
H     1.08286   0.80199   2.89557
H     1.58172   2.11190   1.82022
H     2.81788   1.15450   2.68443
C    -2.30428  -1.06618  -2.46455
C    -2.30954  -2.45199  -2.58864
H    -2.22310  -3.07186  -1.70645
C    -2.42106  -3.03374  -3.83756
H    -2.42619  -4.10989  -3.92897
C    -2.51541  -2.24065  -4.96933
H    -2.59410  -2.69777  -5.94448
C    -2.49790  -0.86078  -4.85097
H    -2.56126  -0.24063  -5.73331
C    -2.38906  -0.27279  -3.60482
H    -2.37149   0.80505  -3.51147
C    -2.91725   1.28319  -1.00853
C    -4.23562   1.36687  -1.44694
H    -4.78822   0.46535  -1.67445
C    -4.82402   2.60698  -1.61402
H    -5.85113   2.67416  -1.94220
C    -4.09662   3.76217  -1.37213
H    -4.56187   4.72754  -1.50684
C    -2.77287   3.68175  -0.97143
H    -2.20123   4.58203  -0.80127
C    -2.18156   2.44491  -0.79001
H    -1.13890   2.37214  -0.46999
C    -2.85040  -1.44834   0.30556
C    -1.98944  -2.39491   0.86502
H    -0.92118  -2.36802   0.60489
C    -2.47616  -3.33638   1.74993
H    -1.81089  -4.06835   2.18433
C    -3.82092  -3.33038   2.09054
H    -4.20168  -4.05864   2.79123
C    -4.67161  -2.38290   1.54830
H    -5.71467  -2.37058   1.82902
C    -4.19288  -1.44128   0.65185
H    -4.85722  -0.69172   0.24902
N     1.88690   0.18356   1.05302
P    -2.04005  -0.29267  -0.83849
Se    1.11616  -0.86347  -1.97707
Pd    0.00000   0.00000   0.00000
O    -0.89819   0.51451   1.28493
