45

Ni    0.00000   0.00000   0.00000
Cl    0.23060   1.14425   1.69294
S    -4.61681  -4.86188   4.75012
S     0.24666   4.85190  -5.24697
O    -5.91876  -2.91710   3.54105
O     1.02281   2.95227  -3.59416
N    -1.97413  -0.96281   0.74271
N    -1.18495   1.05280  -0.83142
N    -3.68659  -3.09859   3.09813
H    -2.85543  -3.64734   3.29005
N    -1.13410   3.64681  -3.41375
H    -1.83585   4.25974  -3.81268
C    -2.25880  -1.90942   1.60679
H    -1.45815  -2.59935   1.84239
C    -3.51803  -2.05532   2.20993
C    -4.49965  -1.12301   1.86720
H    -5.47995  -1.17094   2.30905
C    -4.19372  -0.13132   0.95697
H    -4.94286   0.60150   0.70730
C    -2.91852  -0.07053   0.39472
C    -2.50362   0.94061  -0.58109
C    -3.40224   1.76801  -1.25915
H    -4.45905   1.68256  -1.06930
C    -2.94939   2.67499  -2.18836
H    -3.64380   3.30843  -2.71954
C    -1.57568   2.75938  -2.45478
C    -0.72925   1.92684  -1.72132
H     0.34219   1.96402  -1.86391
C    -4.78250  -3.56185   3.76148
C     0.08020   3.75937  -4.03559
C    -7.08674  -3.40059   4.20549
H    -6.92887  -3.34342   5.28841
H    -7.23725  -4.45266   3.93815
C    -8.26137  -2.54560   3.77036
H    -8.09625  -1.50772   4.04752
H    -8.39131  -2.60594   2.69289
H    -9.16493  -2.90093   4.25579
C     2.29345   2.95072  -4.24747
H     2.73574   3.95077  -4.17229
H     2.14481   2.71900  -5.30830
C     3.14858   1.90178  -3.56201
H     2.64988   0.93612  -3.59269
H     4.10688   1.82439  -4.06638
H     3.31629   2.17306  -2.52287
O     0.41162  -0.93143  -1.29827
