11

Au    0.00000   0.00000   0.00000
C    -1.06827   0.00020   1.53326
N    -1.74390   0.00008   2.47475
C    -2.49505   0.00004   3.65056
H    -3.13170  -0.89048   3.64199
H    -3.13174   0.89053   3.64203
C    -1.58300   0.00004   4.87429
H    -2.18865   0.00000   5.77587
H    -0.94904   0.88314   4.87668
H    -0.94900  -0.88304   4.87664
O     0.94643   0.00002  -1.35158
