35

Re    0.00000   0.00000   0.00000
C     0.47852  -1.86229  -0.36716
O     0.81922  -2.89585  -0.71106
C     1.18598  -0.00421   1.54232
O     1.90526  -0.04429   2.43634
C    -1.53800  -0.39783   1.11575
O    -2.47677  -0.61813   1.74407
N    -0.01506   3.25800   0.30131
C    -0.36602   2.07959  -0.22755
N    -1.05553   2.40179  -1.36417
C    -1.13324   3.76691  -1.52538
H    -1.62774   4.20551  -2.36600
C    -0.48375   4.30072  -0.47183
H    -0.29403   5.32178  -0.21123
C     0.79414   3.44170   1.44864
C     2.05557   2.86486   1.48886
H     2.40323   2.28085   0.64966
C     2.85293   3.05724   2.60278
H     3.83124   2.60456   2.64183
C     2.39741   3.82690   3.65980
H     3.02157   3.97420   4.52796
C     1.14261   4.41149   3.60624
H     0.78853   5.01273   4.42991
C     0.33501   4.22373   2.49920
H    -0.64930   4.66646   2.45302
N    -1.24812   0.16324  -1.84704
C    -1.48627   1.42656  -2.23247
N    -2.07731   1.80170  -3.35119
C    -2.44627   0.84619  -4.18652
H    -2.91854   1.17843  -5.10022
C    -2.23410  -0.49525  -3.90063
H    -2.52608  -1.27525  -4.58243
C    -1.62573  -0.79089  -2.69122
H    -1.43445  -1.81180  -2.38723
O     1.16124   0.40039  -1.10168
