60

Au    0.00000   0.00000   0.00000
P     1.12533   1.79638   0.71364
S    -1.16956   0.67036   1.99208
C     1.38004   1.44527   2.45280
C     0.23310   0.88972   3.03770
C     0.21671   0.56115   4.38887
C     1.39414   0.77449   5.10094
H     1.41229   0.51611   6.14829
C     2.54592   1.27731   4.51615
H     3.44303   1.40056   5.10422
C     2.55189   1.61539   3.17374
H     3.44110   1.99635   2.69167
Si   -1.34310  -0.19774   5.18902
C    -1.71156  -1.87268   4.36592
H    -1.93389  -1.75487   3.31051
H    -2.56849  -2.35143   4.83013
H    -0.86763  -2.55219   4.45072
C    -0.96473  -0.47542   7.03764
H    -1.83668  -0.88966   7.53218
H    -0.71265   0.44868   7.54814
H    -0.14824  -1.17494   7.18529
C    -2.77483   1.05060   5.03947
H    -2.99348   1.26321   3.99810
H    -2.54095   1.99165   5.53006
H    -3.67876   0.65732   5.49409
S     1.65582  -0.25959  -1.65409
C     2.66053   1.86054  -0.20655
C     2.88043   0.91075  -1.21024
C     4.09250   0.92544  -1.91520
C     5.01617   1.90735  -1.58988
H     5.95276   1.92639  -2.12442
C     4.78303   2.87270  -0.61843
H     5.52457   3.62978  -0.41209
C     3.59532   2.85444   0.07957
H     3.36641   3.59665   0.83408
Si    4.45292  -0.35840  -3.28429
C     4.42160  -2.11474  -2.54985
H     5.07371  -2.19842  -1.68471
H     4.75160  -2.84321  -3.28419
H     3.42048  -2.39138  -2.23820
C     6.21159  -0.01550  -3.94087
H     6.96388  -0.10880  -3.16433
H     6.30024   0.97329  -4.37913
H     6.45814  -0.73343  -4.71558
C     3.22407  -0.12512  -4.72074
H     3.24052   0.89262  -5.10098
H     2.21017  -0.34577  -4.40541
H     3.46611  -0.78964  -5.54444
C     0.34616   3.40546   0.55508
C    -0.23000   4.05664   1.64129
H    -0.18089   3.61438   2.62667
C    -0.86441   5.26835   1.43834
H    -1.31284   5.78352   2.27451
C    -0.93182   5.81739   0.16720
H    -1.43292   6.76188   0.01696
C    -0.36508   5.15952  -0.91462
H    -0.42595   5.58879  -1.90337
C     0.27337   3.94931  -0.72716
H     0.71810   3.41734  -1.55925
O    -0.87005  -1.33725  -0.42102
