32

Zn    0.00000   0.00000   0.00000
Cl    0.04389   0.83251  -2.02217
N     1.77228   0.28845   1.02901
N     1.73582   0.34773   2.36802
N    -1.20646   1.12439   1.51073
H    -1.84383   0.34812   1.70234
C     0.48798   0.21786   3.06935
H     0.69992   0.19427   4.13788
H     0.01541  -0.72506   2.77019
C    -0.45922   1.37856   2.74111
H    -1.14658   1.53325   3.58554
H     0.12263   2.29631   2.60458
C     3.03439   0.46604   0.65320
C     3.82623   0.64792   1.79189
H     4.88350   0.81186   1.82189
C     2.96613   0.56911   2.87058
C     3.44870   0.44004  -0.76925
H     3.55000  -0.59102  -1.10722
H     4.40398   0.94219  -0.89369
H     2.69623   0.92003  -1.39097
C     3.25273   0.68508   4.32290
H     4.31168   0.87926   4.46549
H     2.99818  -0.23795   4.84299
H     2.68694   1.50153   4.77071
C    -2.02592   2.27475   1.11574
H    -1.35404   3.07563   0.79546
H    -2.60918   2.63538   1.97713
C    -2.96281   1.90208  -0.02032
H    -2.39161   1.58222  -0.88845
H    -3.56557   2.76090  -0.30224
H    -3.62730   1.09414   0.27932
O    -0.59422  -1.43835   0.54822
