67

Pd    0.00000   0.00000   0.00000
Cl   -1.73680  -0.95584  -1.09948
P     1.49246   1.21984   1.14292
P    -1.24566  -0.25683   1.84984
O     2.35821   2.56164   4.17766
N     0.35624   1.73287   5.00984
C     0.44099   2.21942   6.33954
C     1.20570   2.93498   0.61304
C    -0.82791  -1.93189   2.42768
C     3.75977   0.19648   2.34386
H     3.06977  -0.27590   3.03213
C     3.27171   1.02070   1.33419
C    -3.00724  -0.04191   2.15712
C     1.94080   3.98602   1.15487
H     2.71050   3.78193   1.88612
C     0.05418  -2.70203   1.67151
H     0.45001  -2.32082   0.71649
C     0.41111  -3.96379   2.11499
H     1.08750  -4.56817   1.52932
C    -3.49384   1.20789   2.52779
H    -2.80560   2.03089   2.67335
C     5.12130  -0.00788   2.46050
H     5.50571  -0.63630   3.25015
C    -1.33666  -2.41696   3.62986
H    -2.01025  -1.80441   4.21322
C    -0.06501   4.48291  -0.70952
H    -0.84138   4.68091  -1.43328
C    -0.10162  -4.45041   3.30713
H     0.17812  -5.43553   3.64969
C     0.19370   3.18238  -0.31316
H    -0.38352   2.34806  -0.74286
C    -0.97184  -3.67874   4.06245
H    -1.36652  -4.06173   4.99179
C     4.14168   1.60053   0.41605
H     3.74499   2.20647  -0.38664
C     5.99104   0.58844   1.56088
H     7.05433   0.42430   1.65341
C     5.50160   1.38478   0.53746
H     6.18209   1.83505  -0.16970
C     0.67491   5.52873  -0.18025
H     0.47283   6.54208  -0.49395
C     0.82316   1.27692   2.81863
O    -1.68262   0.63265   5.13945
C     1.33055   1.94614   4.03435
C    -0.71448   0.98956   4.51433
C    -0.38930   0.72810   3.09536
C     0.90304   3.50817   6.57286
H     1.20068   4.13215   5.74536
C    -4.85177   1.38408   2.71320
H    -5.23328   2.34822   3.01491
C     0.05936   1.40653   7.39882
H    -0.30189   0.40845   7.20957
C    -5.24007  -0.90999   2.10601
H    -5.92385  -1.72730   1.93168
C    -5.72291   0.32586   2.50673
H    -6.78366   0.46801   2.65069
C    -3.88286  -1.09819   1.92455
H    -3.49388  -2.05307   1.59872
C     0.60148   3.17384   8.93127
H     0.66366   3.54639   9.94260
C     0.13522   1.89249   8.69160
H    -0.16693   1.26293   9.51485
C     0.98772   3.97662   7.87142
H     1.35171   4.97652   8.05319
C     1.67256   5.28105   0.75053
H     2.24319   6.10001   1.16260
O     1.14239   0.04980  -1.18952
