64

Pt    0.00000   0.00000   0.00000
P    -0.94460   1.76717   1.02885
P    -1.01535   0.15840  -2.00804
Cl    0.90795  -1.87481  -1.00387
C     0.10522   3.18681   1.43793
C     1.47095   3.06957   1.20394
H     1.85524   2.13886   0.80208
C     2.32031   4.11877   1.50381
H     3.38082   4.02231   1.32636
C     1.80857   5.29089   2.03607
H     2.46975   6.11080   2.27458
C     0.44719   5.41401   2.26613
H     0.04993   6.32851   2.68209
C    -0.40694   4.36776   1.96791
H    -1.46781   4.47163   2.15048
C    -1.73830   1.24133   2.57042
C    -2.47644   0.06282   2.47932
H    -2.53302  -0.44930   1.52269
C    -3.08767  -0.46495   3.59841
H    -3.65306  -1.38243   3.52679
C    -2.95555   0.17725   4.82058
H    -3.42530  -0.23728   5.70019
C    -2.20249   1.33434   4.91919
H    -2.08160   1.81947   5.87665
C    -1.58778   1.86844   3.79883
H    -0.97789   2.75550   3.88652
C     0.11961   0.61902  -3.34458
C     1.44962   0.86217  -3.02194
H     1.77221   0.73675  -1.99216
C     2.34728   1.23195  -4.00659
H     3.38095   1.41452  -3.75426
C     1.91884   1.36175  -5.31764
H     2.61834   1.64750  -6.08918
C     0.59366   1.11892  -5.64436
H     0.26332   1.21453  -6.66847
C    -0.30738   0.74902  -4.66282
H    -1.33854   0.54820  -4.92212
C    -1.84977  -1.35261  -2.56321
C    -2.94733  -1.79347  -1.82776
H    -3.30379  -1.20461  -0.99149
C    -3.56357  -2.98901  -2.14306
H    -4.41247  -3.32754  -1.56708
C    -3.08023  -3.76047  -3.18780
H    -3.55680  -4.69854  -3.43075
C    -1.97265  -3.33919  -3.90433
H    -1.58123  -3.95181  -4.70299
C    -1.35125  -2.14333  -3.59162
H    -0.46796  -1.83305  -4.12991
C    -2.39372   2.48551   0.12929
H    -3.23943   1.81187   0.30098
H    -2.65101   3.44520   0.58728
C    -2.20219   2.69819  -1.37884
C    -2.38779   1.40308  -2.18264
H    -2.46839   1.65070  -3.24413
H    -3.32071   0.91944  -1.87963
C    -0.84129   3.33307  -1.68193
H    -0.73731   4.28222  -1.15897
H    -0.73180   3.50208  -2.75118
H    -0.04899   2.65989  -1.34808
C    -3.25270   3.71352  -1.84151
O    -3.92578   4.39118  -1.11340
O    -3.32401   3.81007  -3.17261
H    -3.96606   4.49282  -3.42517
O     0.78037  -0.19073   1.44123
