64

Pd    0.00000   0.00000   0.00000
P    -0.87495   1.78942   0.98156
P    -0.88702   0.29893  -2.01360
Cl    0.92997  -1.84730  -0.96537
C     0.32897   3.11882   1.24972
C     1.65408   2.81920   0.93997
H     1.90547   1.81518   0.58970
C     2.63850   3.77708   1.09651
H     3.66520   3.54008   0.86134
C     2.30471   5.04033   1.55777
H     3.07191   5.78969   1.68414
C     0.98618   5.34689   1.85419
H     0.72781   6.33453   2.20771
C    -0.00414   4.39355   1.69751
H    -1.03210   4.64750   1.91668
C    -1.63732   1.36868   2.57150
C    -2.24194   0.11301   2.60787
H    -2.18665  -0.52714   1.72234
C    -2.85276  -0.32966   3.76354
H    -3.31306  -1.30601   3.79641
C    -2.85475   0.47737   4.89194
H    -3.32341   0.13007   5.80072
C    -2.23756   1.71574   4.86359
H    -2.22288   2.33219   5.75044
C    -1.62507   2.16658   3.70605
H    -1.12039   3.12113   3.69633
C     0.33178   0.88441  -3.22300
C     1.64832   0.97164  -2.77436
H     1.88642   0.66016  -1.75339
C     2.64302   1.42634  -3.61977
H     3.66276   1.48725  -3.27054
C     2.32876   1.80115  -4.91623
H     3.10418   2.15366  -5.57994
C     1.01921   1.72787  -5.36314
H     0.77606   2.02570  -6.37280
C     0.01870   1.27596  -4.52109
H    -1.00205   1.23567  -4.87600
C    -1.65773  -1.21386  -2.64897
C    -2.31806  -1.96957  -1.68108
H    -2.30523  -1.62572  -0.64353
C    -2.93009  -3.15731  -2.02565
H    -3.43301  -3.74842  -1.27473
C    -2.87669  -3.60127  -3.33900
H    -3.34473  -4.53591  -3.61009
C    -2.20382  -2.86304  -4.29680
H    -2.14482  -3.22372  -5.31329
C    -1.59001  -1.66846  -3.95755
H    -1.03990  -1.11137  -4.70129
C    -2.31779   2.58144   0.13569
H    -3.18465   1.94243   0.34177
H    -2.51481   3.54948   0.60664
C    -2.18094   2.78359  -1.37963
C    -2.32167   1.46919  -2.16197
H    -2.46822   1.68992  -3.22253
H    -3.20433   0.92400  -1.80761
C    -0.86187   3.48151  -1.72585
H    -0.79156   4.44093  -1.21618
H    -0.78894   3.64408  -2.79924
H    -0.02635   2.85439  -1.40649
C    -3.29465   3.74001  -1.81847
O    -3.97151   4.39657  -1.07496
O    -3.42043   3.81040  -3.14739
H    -4.10631   4.45510  -3.38489
O     0.71155  -0.27021   1.46396
