63

Pd    0.00000   0.00000   0.00000
P    -2.24930   0.17848   0.17184
Cl    2.24278  -0.22880  -0.05066
O    -0.91790   2.60559   3.05049
N     0.08192   1.16501   1.69284
C     0.40304   0.65842   3.01593
C    -0.39644   1.61298   3.93305
H    -1.23510   1.11469   4.42805
H     0.22145   2.11136   4.68132
C    -0.59513   2.23738   1.80010
C    -1.04160   3.16659   0.69823
C    -2.55890   3.01846   0.58750
C    -3.38941   4.12757   0.69810
H    -2.96653   5.10566   0.85379
C    -4.76638   4.01867   0.61254
H    -5.37785   4.90400   0.70060
C    -5.35192   2.78144   0.41787
H    -6.42502   2.68255   0.35590
C    -4.54412   1.66809   0.29918
H    -4.99165   0.69709   0.13689
C    -3.15497   1.76500   0.37958
C     1.92869   0.64618   3.23507
C     2.54921   2.02628   3.03845
H     2.13152   2.76573   3.72029
H     2.39389   2.35720   2.01406
H     3.62022   1.96996   3.21171
C     2.26101   0.06452   4.60505
H     1.89909   0.70429   5.40810
H     3.33798  -0.03446   4.70899
H     1.81483  -0.92036   4.72267
C    -0.59210   4.56626   1.15463
H    -1.03963   4.82968   2.10906
H    -0.84694   5.31587   0.41043
H     0.48977   4.56378   1.27273
C    -0.36462   2.89007  -0.65921
H     0.69548   2.64099  -0.52077
H    -0.42534   3.79080  -1.26772
H    -0.85397   2.08463  -1.22490
C    -2.54589  -0.71001   1.73463
C    -1.75823  -1.85221   1.91307
H    -1.06179  -2.15545   1.12160
C    -1.85920  -2.58833   3.07913
H    -1.25687  -3.47466   3.21201
C    -2.72476  -2.17799   4.08343
H    -2.79665  -2.74630   4.99872
C    -3.49107  -1.03681   3.91677
H    -4.15868  -0.71458   4.70269
C    -3.40722  -0.30156   2.74486
H    -4.00488   0.59083   2.62122
C    -3.30219  -0.68791  -1.02821
C    -4.01235  -1.84379  -0.72913
H    -3.99706  -2.24817   0.27389
C    -4.73793  -2.47885  -1.72225
H    -5.28839  -3.37856  -1.48888
C    -4.75198  -1.97078  -3.00964
H    -5.31273  -2.47576  -3.78204
C    -4.03675  -0.82210  -3.31195
H    -4.03651  -0.43380  -4.31938
C    -3.31062  -0.18415  -2.32668
H    -2.72977   0.70025  -2.55708
H     0.04007  -0.37379   3.10316
H     2.33753  -0.01019   2.45809
O    -0.15758  -0.95914  -1.33331
