67

Pt    0.00000   0.00000   0.00000
P     1.35427  -1.73916  -0.62056
P    -0.95525   2.02558   0.43522
Si    0.58183   0.89837  -2.04498
O    -0.27274   0.54249  -3.41869
H    -1.18634   0.80388  -3.50610
C     0.39757   2.79427  -1.85534
C     0.85334   3.70892  -2.79009
H     1.47929   3.36719  -3.60060
C     0.50973   5.04755  -2.70825
H     0.88043   5.75025  -3.44063
C    -0.33157   5.48070  -1.69721
H    -0.62514   6.51926  -1.64256
C    -0.80094   4.58011  -0.75724
H    -1.47412   4.92498   0.01400
C    -0.42446   3.24320  -0.81857
C     2.22465   0.07079  -2.53272
C     3.07966   0.54615  -3.51153
H     2.86249   1.48856  -3.99052
C     4.20539  -0.16756  -3.88465
H     4.86807   0.21870  -4.64575
C     4.47772  -1.38234  -3.27964
H     5.35142  -1.94935  -3.56772
C     3.62861  -1.87434  -2.30410
H     3.85682  -2.82686  -1.84858
C     2.50162  -1.15506  -1.92187
C    -0.21083   2.60721   2.02975
H    -0.55505   1.86228   2.75955
C    -0.58066   4.00383   2.51015
H    -0.19286   4.15390   3.51705
H    -1.65933   4.14597   2.54109
H    -0.14074   4.76260   1.86628
C     1.29954   2.45183   1.85313
H     1.68153   3.18792   1.14582
H     1.52132   1.45055   1.46151
H     1.81750   2.57623   2.80219
C    -2.79234   2.24884   0.53229
H    -3.03797   3.31742   0.55664
C    -3.34243   1.62527  -0.74944
H    -3.02671   0.58083  -0.80672
H    -2.96226   2.15206  -1.62554
H    -4.43037   1.66033  -0.76616
C    -3.34066   1.54787   1.76973
H    -4.42715   1.48999   1.72345
H    -3.06468   2.07758   2.67911
H    -2.94331   0.53550   1.83321
C     2.48441  -2.48865   0.64875
H     3.27131  -3.06300   0.14582
C     3.10608  -1.30572   1.38786
H     2.31981  -0.76814   1.91889
H     3.59196  -0.62325   0.68860
H     3.84232  -1.64209   2.11598
C     1.72583  -3.39157   1.61465
H     2.36584  -3.65229   2.45638
H     1.40617  -4.31464   1.13494
H     0.85097  -2.87159   2.00256
C     0.39518  -3.14582  -1.36007
H    -0.04791  -3.66134  -0.49856
C     1.22644  -4.12847  -2.17326
H     0.59184  -4.93510  -2.53824
H     2.01826  -4.56938  -1.57053
H     1.67397  -3.63167  -3.03205
C    -0.73631  -2.53455  -2.18229
H    -0.33907  -1.98784  -3.03546
H    -1.30330  -1.83577  -1.55666
H    -1.41373  -3.30704  -2.54270
O    -0.50508  -0.62502   1.44109
