39

Pd    0.00000   0.00000   0.00000
Cl   -2.20965   0.02091  -0.05587
N     1.57591   0.92065  -2.12329
N    -0.36267   1.74515  -2.57580
N     2.02627  -0.18574  -0.17345
N     3.76176   0.19906  -1.74978
C     0.27094   0.95546  -1.70464
C     0.51283   2.18894  -3.54177
H     0.19913   2.84260  -4.32986
C     1.73131   1.67421  -3.26693
H     2.67784   1.77078  -3.75512
C     2.51310   0.28596  -1.34035
C     4.61444  -0.42180  -0.94728
H     5.63263  -0.47979  -1.30400
C     4.21669  -0.96148   0.27004
H     4.91163  -1.47004   0.91574
C     2.88555  -0.81614   0.62724
H     2.47140  -1.19180   1.55763
C    -1.71916   2.15402  -2.44380
C    -2.06173   3.00147  -1.38826
C    -3.38266   3.40123  -1.27956
H    -3.67025   4.05005  -0.46578
C    -4.35048   2.96799  -2.17651
C    -3.97963   2.10980  -3.20033
H    -4.72887   1.74618  -3.88819
C    -2.66817   1.68516  -3.34758
C    -1.03967   3.43319  -0.37990
H    -1.44471   4.21201   0.25980
H    -0.13498   3.80726  -0.86046
H    -0.76612   2.57410   0.26105
C    -5.77532   3.39388  -2.00652
H    -6.35559   3.18978  -2.90245
H    -5.83679   4.45582  -1.77767
H    -6.22191   2.84695  -1.17677
C    -2.28125   0.70712  -4.41506
H    -3.16365   0.34547  -4.93487
H    -1.77043  -0.14475  -3.96696
H    -1.61196   1.15833  -5.14741
O    -0.02270  -0.75923   1.46477
