58

Ti    0.00000   0.00000   0.00000
Si    1.69672   2.21617   2.55455
Si   -0.57859  -2.75114  -2.38279
O    -1.21609   0.23277  -1.19894
C     1.50011   1.60295   0.78027
C     2.28621   0.62069   0.14292
H     3.08186   0.05573   0.61170
C     1.99639   0.62796  -1.23961
H     2.51532   0.05749  -1.99911
C     1.07370   1.66613  -1.48161
H     0.71925   1.99127  -2.45259
C     0.74308   2.24332  -0.24629
H     0.10995   3.10959  -0.10275
C     3.49477   2.86319   2.69191
H     3.69161   3.64821   1.96896
H     4.22188   2.07509   2.52380
H     3.67823   3.27218   3.67959
C     1.47430   0.80262   3.82174
H     2.21725   0.02058   3.68923
H     0.48911   0.35409   3.73496
H     1.57790   1.17797   4.83514
C     0.48611   3.64768   2.89803
H     0.65967   4.48607   2.22978
H     0.59938   4.01111   3.91444
H    -0.54146   3.32227   2.77354
C    -0.12588  -2.21541  -0.63826
C     1.18290  -2.08648  -0.10705
H     2.09484  -2.27272  -0.65957
C     1.09550  -1.88101   1.28256
H     1.92383  -1.84438   1.97678
C    -0.26135  -1.86762   1.63067
H    -0.66137  -1.80313   2.63416
C    -1.01936  -2.05626   0.45471
H    -2.09592  -2.18019   0.41291
C     0.45419  -1.74135  -3.64359
H     1.48298  -2.09102  -3.66888
H     0.46943  -0.68396  -3.38770
H     0.06014  -1.83910  -4.65102
C    -0.11090  -4.59412  -2.58949
H     0.94947  -4.75949  -2.42767
H    -0.34851  -4.94062  -3.58969
H    -0.64963  -5.22190  -1.88710
C    -2.46073  -2.56082  -2.65110
H    -3.00198  -3.36629  -2.16308
H    -2.71889  -2.59082  -3.70537
H    -2.82845  -1.62257  -2.24503
C    -1.94831   1.11263  -1.87205
C    -2.56144   2.19064  -1.21738
H    -2.44683   2.28787  -0.14608
C    -3.32097   3.09670  -1.93141
H    -3.78903   3.91991  -1.41172
C    -3.48607   2.95944  -3.30031
H    -4.07853   3.67347  -3.85180
C    -2.88957   1.89410  -3.95399
H    -3.01691   1.77443  -5.02018
C    -2.13053   0.97577  -3.25518
H    -1.67186   0.14075  -3.76265
O    -0.95710   0.62610   1.18931
