33

H    -1.49209  -1.88436  -1.31846
H    -5.90519  -1.33334   1.37287
Zn    0.00000   0.00000   0.00000
Cl    1.10795  -0.72409   1.74045
N    -1.64993   1.19225   0.64471
N    -1.70883  -1.26169  -0.54161
C    -2.75093   0.87979  -0.03184
O    -4.96832  -1.41083   1.15667
C    -2.63009  -0.23626  -1.02920
H    -3.62077  -0.64766  -1.25757
H    -2.19765   0.18761  -1.94266
C    -4.76855  -2.53337   0.40502
C    -1.68005   2.17549   1.53365
H    -0.75471   2.36719   2.05810
C    -2.28833  -2.07101   0.54311
H    -2.60035  -1.39684   1.34184
H    -1.49830  -2.71998   0.92776
C    -3.45873  -2.89937   0.08159
C    -3.94058   1.57124   0.15938
H    -4.81768   1.29820  -0.40572
C    -3.25548  -4.02925  -0.69821
H    -2.24324  -4.31912  -0.94165
C    -2.82394   2.91107   1.78731
H    -2.81111   3.70263   2.51878
C    -3.97687   2.60336   1.08042
H    -4.88907   3.15603   1.24827
C    -5.83518  -3.30290  -0.04372
H    -6.84520  -3.01641   0.21923
C    -4.31779  -4.79029  -1.15182
H    -4.13818  -5.66632  -1.75498
C    -5.61064  -4.42463  -0.82023
H    -6.44818  -5.01258  -1.16297
O     0.34734   0.57777  -1.50600
