63

Pd    0.00000   0.00000   0.00000
S     1.03731   1.96468  -0.56672
N     1.89821  -0.68926   0.41102
N     3.69679   2.30667  -0.25159
P    -2.06273   0.70029  -0.42244
C     2.13178  -1.93994   0.80533
H     1.26476  -2.58877   0.88120
C     3.39952  -2.40240   1.11008
H     3.53546  -3.42467   1.42455
C     4.47377  -1.52969   1.00406
H     5.47653  -1.85575   1.23625
C     4.23273  -0.23436   0.59443
H     5.01720   0.49713   0.48834
C     2.92802   0.16479   0.29904
C     2.67791   1.54367  -0.14883
C     3.69873   3.64188  -0.57276
C     4.72894   4.09930  -1.39976
H     5.41824   3.37483  -1.80871
C     4.85185   5.43984  -1.71377
C     3.94645   6.34512  -1.16749
H     4.03791   7.39656  -1.40014
C     2.94002   5.90712  -0.32550
H     2.24984   6.62015   0.10312
C     2.80328   4.56579  -0.02953
H     2.02665   4.22850   0.63951
C     5.93873   5.92182  -2.62808
H     5.51255   6.25426  -3.57481
H     6.65511   5.13032  -2.83297
H     6.46478   6.76615  -2.18536
C    -3.00795   0.88352   1.11345
C    -2.32042   0.67707   2.30677
H    -1.26576   0.37718   2.27226
C    -2.97030   0.84640   3.51573
H    -2.44137   0.68156   4.44264
C    -4.30222   1.22855   3.53528
H    -4.81261   1.35356   4.47877
C    -4.97914   1.46563   2.34904
H    -6.01162   1.78244   2.37099
C    -4.33341   1.30578   1.13654
H    -4.84635   1.52265   0.20943
C    -2.82627  -0.48396  -1.56341
C    -1.93740  -0.98378  -2.51673
H    -0.89216  -0.64786  -2.49440
C    -2.36910  -1.90567  -3.44902
H    -1.68295  -2.29712  -4.18545
C    -3.68644  -2.34127  -3.42524
H    -4.02400  -3.07048  -4.14673
C    -4.56336  -1.85981  -2.46862
H    -5.58260  -2.21647  -2.44279
C    -4.13926  -0.92867  -1.53416
H    -4.81881  -0.57229  -0.77449
C    -2.33405   2.31860  -1.20812
C    -2.87683   2.47192  -2.47719
H    -3.19253   1.60374  -3.03946
C    -3.00903   3.74000  -3.01709
H    -3.43217   3.86022  -4.00379
C    -2.59424   4.85000  -2.30108
H    -2.69157   5.83570  -2.73144
C    -2.04739   4.69838  -1.03573
H    -1.71657   5.56412  -0.48174
C    -1.91778   3.43716  -0.48979
H    -1.48215   3.29908   0.49261
O    -0.78691  -1.39127   0.40942
