21

Pt    0.00000   0.00000   0.00000
Cl   -0.29357  -0.54154   2.14770
N     0.23046   0.67954  -2.02917
N    -0.14399   2.10885   0.40609
C    -0.41729  -0.10365  -3.07931
C    -0.17414   2.08731  -2.04691
C     0.33879   2.79644  -0.79392
C     0.48586   2.60488   1.62796
H     1.24076   0.61497  -2.16771
H    -1.15243   2.24813   0.49415
H    -0.18144   0.28634  -4.07519
H    -1.49671  -0.08020  -2.93436
H    -0.08621  -1.13764  -2.99838
H    -1.26881   2.11975  -2.06228
H     0.19364   2.60166  -2.94607
H     1.43348   2.76508  -0.77877
H     0.02923   3.85112  -0.80668
H     0.29915   3.67460   1.77070
H     1.56058   2.43495   1.57553
H     0.09468   2.04416   2.47520
O     0.15524  -1.58537  -0.43011
