69

C     1.24546  -0.18145  -1.56743
C     2.90652  -1.14493  -2.73959
H     3.79502  -1.71606  -2.90647
C     2.09539  -0.48615  -3.59645
C     0.09538   0.96961  -3.42814
C     0.37038   2.33548  -3.48541
C    -0.61181   3.18611  -3.96992
H    -0.41403   4.24778  -4.01002
C    -1.83437   2.69939  -4.40864
C    -2.05260   1.32908  -4.39456
H    -2.98872   0.93925  -4.76719
C    -1.09809   0.44135  -3.92049
C     1.71661   2.86726  -3.08799
H     2.44919   2.62948  -3.86111
H     2.06018   2.42752  -2.15297
H     1.68347   3.94760  -2.97373
C    -2.90288   3.62834  -4.89853
H    -3.68895   3.71842  -4.14869
H    -3.35619   3.24549  -5.81055
H    -2.50097   4.61933  -5.09348
C    -1.32002  -1.03359  -3.96590
H    -0.54686  -1.51666  -4.56316
H    -2.28835  -1.26349  -4.40066
H    -1.27644  -1.45908  -2.96231
C     2.91372  -1.39847  -0.26242
C     2.65674  -2.70140   0.17888
C     3.11297  -3.06584   1.43676
H     2.89679  -4.05915   1.80270
C     3.83897  -2.19252   2.23469
C     4.17771  -0.95081   1.72053
H     4.79983  -0.28381   2.30031
C     3.74082  -0.54279   0.46781
C     1.94449  -3.68418  -0.68933
H     1.95507  -4.67160  -0.23688
H     2.41021  -3.74098  -1.67198
H     0.90718  -3.37687  -0.83236
C     4.29444  -2.61566   3.59810
H     5.12519  -3.31653   3.51476
H     3.48946  -3.11684   4.13171
H     4.62631  -1.76085   4.18195
C     4.25057   0.74736  -0.10589
H     4.36452   1.50002   0.67086
H     3.60212   1.13494  -0.88698
H     5.23481   0.57406  -0.54504
C    -0.59989  -0.43530   2.01101
C    -1.66676   0.19083   1.40121
C    -2.05991   1.62769   1.65144
H    -1.76686   1.91435   2.66215
H    -3.14680   1.71632   1.59267
C    -1.42699   2.56826   0.61254
H    -2.08221   2.62447  -0.26155
H    -1.34141   3.58242   1.01991
C    -0.06918   2.10673   0.13620
C     0.96328   1.64615   0.95555
C     0.88265   1.58449   2.46656
H     1.87765   1.75746   2.88281
H     0.23940   2.38759   2.82905
C     0.37797   0.21672   2.96009
H    -0.08756   0.31718   3.94694
H     1.23503  -0.45420   3.06953
N     1.08690   0.10172  -2.88454
N     2.36038  -0.94247  -1.49460
F     2.17756  -0.34308  -4.91833
Rh    0.00000   0.00000   0.00000
H     0.20525   2.56390  -0.81268
H    -2.46782  -0.43705   1.01316
H    -0.62249  -1.52406   2.09009
H     1.97272   1.77591   0.58146
O    -0.64347  -1.43154  -0.50905
