45

W     0.00000   0.00000   0.00000
Si   -2.54558   1.66205  -0.09958
N    -0.22067  -0.48933   1.67808
O    -0.26521  -0.98984   2.76005
C     0.15553  -1.74082  -1.56824
C     1.21481  -1.85788  -0.61034
C     2.05099  -0.70202  -0.74900
C     1.52294   0.10309  -1.81225
C     0.36008  -0.52837  -2.31010
C    -0.78966  -2.85070  -1.93076
C     1.50692  -3.06500   0.23174
C     3.36168  -0.47651  -0.05494
C     2.22108   1.30787  -2.37007
C    -0.41621  -0.14877  -3.53700
C    -2.14326  -0.20023  -0.28539
C    -4.40939   1.97722  -0.40547
C    -2.15352   2.31724   1.66384
C    -1.62266   2.62189  -1.49217
H    -2.70218  -0.78063   0.45138
H    -2.47366  -0.53216  -1.27288
H    -4.63962   3.03368  -0.32364
H    -5.01982   1.45011   0.31909
H    -4.71530   1.64968  -1.39313
H    -1.64511   3.27652   1.62908
H    -1.51446   1.62695   2.21519
H    -3.06720   2.44879   2.23580
H    -1.64287   3.69047  -1.30010
H    -0.57516   2.32889  -1.57222
H    -2.09504   2.45825  -2.45706
H    -0.24957  -3.62979  -2.47262
H    -1.22739  -3.29687  -1.03929
H    -1.59488  -2.49177  -2.56659
H     2.18148  -3.73893  -0.29950
H     1.97827  -2.77857   1.17045
H     0.59039  -3.60425   0.46204
H     4.17266  -0.94298  -0.61890
H     3.57344   0.58787   0.03513
H     3.34858  -0.90939   0.94462
H     3.19482   1.01850  -2.76841
H     2.38330   2.05878  -1.59410
H     1.64673   1.76499  -3.17312
H    -0.15460  -0.81811  -4.35909
H    -0.19552   0.87000  -3.84686
H    -1.49062  -0.22629  -3.37139
O     0.65900   1.44670   0.44190
