31

Nb    0.00000   0.00000   0.00000
Cl   -1.56498  -1.03337  -1.46561
P     0.60272   0.80971   2.49803
C    -0.93183   1.37678   3.31081
C     1.66384   2.29183   2.75057
C     1.27352  -0.36230   3.73153
C     2.56744  -0.29013   0.26761
C     2.08378  -1.59384   0.05082
C     1.50149  -1.63534  -1.21832
C     1.59331  -0.34615  -1.79608
C     2.25707   0.49465  -0.86755
N    -0.84236   1.55647  -0.10567
C    -1.62853   2.69929  -0.31158
H    -1.65805   0.56567   3.29590
H    -1.32726   2.21898   2.74354
H    -0.72168   1.68042   4.33706
H     1.28771   3.08941   2.11116
H     2.69167   2.07405   2.46798
H     1.63536   2.61012   3.79215
H     0.61942  -1.23199   3.76393
H     1.30594   0.11892   4.70902
H     2.27664  -0.67520   3.44607
H     3.17756   0.02922   1.10295
H     2.21412  -2.43517   0.71824
H     1.09792  -2.51200  -1.70762
H     1.36800  -0.09739  -2.82645
H     2.63134   1.49036  -1.07223
H    -1.01160   3.60796  -0.31469
H    -2.39253   2.79063   0.47316
H    -2.14088   2.62118  -1.28166
O    -0.73600  -0.98174   1.10317
