33

Ru    0.00000   0.00000   0.00000
I    -1.43221  -0.16879   2.30144
C     1.08166   1.35724   0.67889
O     1.72749   2.20653   1.08393
N     1.10616  -1.59217   0.68895
C     2.23521  -1.50926   1.38978
H     2.59738  -0.51305   1.61795
C     2.93501  -2.61643   1.81998
H     3.84480  -2.48810   2.38419
C     2.45775  -3.89164   1.51996
C     1.28099  -3.97098   0.79068
H     0.87781  -4.93795   0.53829
C     0.62401  -2.81199   0.38644
C     3.19031  -5.10904   1.96965
H     2.68476  -6.01594   1.64967
H     3.27163  -5.11523   3.05571
H     4.20106  -5.10689   1.56404
C    -1.08021   1.35755  -0.68078
O    -1.72405   2.20744  -1.08774
C    -0.62401  -2.81199  -0.38656
N    -1.10859  -1.59218  -0.68522
C    -2.23949  -1.50930  -1.38305
H    -2.60355  -0.51307  -1.60808
C    -2.93890  -2.61649  -1.81383
H    -3.85062  -2.48810  -2.37493
C    -2.45873  -3.89168  -1.51845
C    -1.27986  -3.97099  -0.79257
H    -0.87434  -4.93796  -0.54397
C    -3.19103  -5.10916  -1.96826
H    -2.68131  -6.01597  -1.65472
H    -3.27931  -5.11159  -3.05376
H    -4.19917  -5.11093  -1.55616
O     0.86985  -0.10537  -1.39813
