68

Pd    0.00000   0.00000   0.00000
Cl   -1.05364  -2.03364   0.27781
P     1.14285   1.88493   0.48094
P    -2.17816   0.71638  -0.26323
C    -3.05550   0.22671   1.26023
C    -2.48425   0.47954   2.51657
C    -1.09452   1.04378   2.68476
H    -0.39317   0.39916   2.11785
H    -0.82728   0.95821   3.74311
C    -4.98128  -0.76017   2.33601
H    -5.93745  -1.25587   2.25834
C    -4.43658  -0.48248   3.57628
H    -4.96492  -0.75149   4.47874
C    -3.19530   0.12118   3.65594
H    -2.75954   0.30511   4.62868
C    -4.29291  -0.40650   1.19109
H    -4.71867  -0.64781   0.23074
C    -1.81296   3.39385   2.92016
H    -2.56393   3.00417   3.59309
C    -0.94494   2.49799   2.30120
C     0.03693   3.00222   1.43044
C    -1.73524   4.75526   2.69783
H    -2.42779   5.42435   3.18580
C    -0.75546   5.25305   1.85658
H    -0.67072   6.31562   1.68368
C     0.11737   4.38064   1.23446
H     0.87593   4.78229   0.58030
C    -2.85831  -0.33125  -1.66042
H    -2.95466  -1.30994  -1.17333
C    -2.81301   2.49427  -0.45854
H    -2.04419   3.09134   0.04302
C    -4.18969   0.03907  -2.31543
H    -4.04259   0.74001  -3.13269
H    -4.89817   0.47096  -1.61374
H    -4.63944  -0.86030  -2.73468
C    -1.76273  -0.46087  -2.72709
H    -2.02729  -1.24803  -3.43122
H    -0.79561  -0.73388  -2.26789
H    -1.64005   0.46638  -3.28761
C    -4.13454   2.76201   0.25594
H    -4.41718   3.80248   0.09945
H    -4.04898   2.59275   1.32614
H    -4.93400   2.13301  -0.12722
C    -2.89572   2.97003  -1.90849
H    -2.11654   2.52975  -2.52379
H    -2.78211   4.05296  -1.94487
H    -3.86216   2.72804  -2.33879
C     1.77577   2.81639  -0.99589
H     2.20501   3.78175  -0.70943
C     2.63367   1.73099   1.58783
H     3.34968   1.13854   1.00780
C     2.27787   0.93865   2.84277
H     1.83751  -0.02271   2.56962
H     1.58749   1.49724   3.47327
H     3.17961   0.73822   3.41869
C     3.23485   3.08481   1.95197
H     3.58394   3.62244   1.07372
H     4.08849   2.93326   2.61046
H     2.50849   3.70346   2.47725
C     2.84106   1.95344  -1.66901
H     3.07939   2.35250  -2.65375
H     2.47028   0.93243  -1.78886
H     3.75835   1.91711  -1.08658
C     0.60120   3.01991  -1.94423
H     0.93051   3.47067  -2.87904
H    -0.15812   3.65882  -1.49810
H     0.15983   2.04122  -2.16428
O     1.45628  -0.77571   0.00413
