67

Rh    0.00000   0.00000   0.00000
Cl   -1.03517   1.95221  -0.57998
Cl   -1.60255  -0.61022   1.57072
N     1.10972  -1.52393   0.22777
N     1.14469   0.68015   1.60031
N    -0.91623  -1.26271  -1.36555
C     1.02786  -2.48735  -0.69896
C     2.02240  -3.45621  -0.78841
H     1.97015  -4.23351  -1.53202
C     3.10542  -3.38686   0.07268
H     3.89058  -4.12448   0.01429
C     3.19738  -2.34519   0.98141
H     4.06281  -2.25202   1.61579
C     2.17367  -1.40447   1.03072
C     2.12438  -0.22134   1.88257
C     2.99183  -0.05137   2.95201
H     3.75917  -0.78242   3.14397
C     2.84016   1.04151   3.78531
H     3.49653   1.18776   4.63005
C     1.80961   1.92490   3.53511
C     0.97303   1.71798   2.41842
C    -0.15225  -2.37422  -1.54867
C    -0.50380  -3.35998  -2.45992
H     0.12976  -4.22023  -2.59536
C    -1.68080  -3.23784  -3.17581
H    -1.97000  -3.98944  -3.89504
C    -2.50060  -2.15712  -2.92112
C    -2.08620  -1.17447  -1.99705
C     1.49978   3.09374   4.40243
H     2.19978   3.20011   5.23059
C     1.24435   4.29283   3.46999
H     1.29211   5.24971   3.98060
H     1.84999   4.33562   2.56667
C    -0.17915   3.73728   3.31476
H    -0.99902   4.43836   3.16731
C    -0.14741   2.68635   2.21382
H    -1.09087   2.13578   2.15396
H    -0.02297   3.17921   1.24575
C    -0.02605   3.08971   4.71218
C    -0.70418   1.75333   4.98053
H    -0.35521   1.34570   5.92820
H    -0.51849   1.01452   4.20775
H    -1.78017   1.89900   5.04677
C    -0.38310   4.04593   5.84531
H     0.08093   5.01994   5.72470
H    -0.06302   3.63127   6.79951
H    -1.46145   4.18634   5.87978
C    -3.02693  -0.04524  -1.72923
H    -2.54740   0.90450  -1.97797
H    -3.22443  -0.00671  -0.65268
C    -4.32138  -0.20766  -2.51257
H    -5.02064   0.59706  -2.29129
C    -4.80259  -1.65861  -2.36759
H    -5.84852  -1.80357  -2.61966
H    -4.58798  -2.14811  -1.41933
C    -3.84623  -1.98215  -3.53353
H    -4.10004  -2.78328  -4.22697
C    -4.01780  -0.50950  -4.00091
C    -5.23863  -0.32563  -4.89617
H    -6.13027  -0.77989  -4.47518
H    -5.05822  -0.77013  -5.87328
H    -5.43254   0.73577  -5.03549
C    -2.82960   0.17648  -4.66085
H    -1.89732   0.01848  -4.12784
H    -3.01014   1.24803  -4.71261
H    -2.70339  -0.19863  -5.67522
O     1.16575   0.39152  -1.10011
