39

Pd    0.00000   0.00000   0.00000
S     1.30053  -1.87640  -0.20048
O    -1.37589   1.40968   0.40374
N    -0.00186   0.52489  -1.99203
C    -2.16865   1.93029  -0.44971
C    -1.98395   1.92799  -1.87273
C    -2.91534   2.60761  -2.68892
H    -2.75422   2.59984  -3.75873
C    -4.00239   3.24936  -2.16815
H    -4.70667   3.75172  -2.81292
C    -4.19278   3.25503  -0.77883
H    -5.04905   3.76487  -0.36135
C    -3.30802   2.62688   0.04783
H    -3.43929   2.62871   1.11923
C    -0.86452   1.33703  -2.50763
H    -0.73111   1.61883  -3.55863
C     1.16044   0.16980  -2.76742
H     1.12090   0.65589  -3.75755
C     1.25038  -1.35630  -2.99473
H     1.79438  -1.53730  -3.92390
H     0.23076  -1.73233  -3.11980
C     1.96440  -2.12286  -1.89014
H     3.00873  -1.81687  -1.83349
H     1.93034  -3.19431  -2.08933
C     2.43571   0.69910  -2.08230
C     3.13299   1.85900  -0.10228
H     4.07943   1.36436  -0.34447
H     3.23698   2.93979  -0.24356
C     2.63500   1.52666   1.29594
H     1.59802   1.87545   1.39868
H     3.24821   2.01615   2.04661
H     2.66081   0.44721   1.46493
C    -0.16132  -2.95905  -0.27724
H    -0.88346  -2.58098  -1.00552
H    -0.59173  -2.93821   0.72413
H     0.15541  -3.96870  -0.52913
O     2.12043   1.40454  -1.00942
O     3.54985   0.48764  -2.48291
O    -0.04872  -0.46904   1.58118
