56

Fe    0.00000   0.00000   0.00000
P    -1.64780  -0.50174   1.32386
P     1.55957   0.88167  -1.21948
Cl    0.84466  -1.94493   0.03337
O    -2.17646   1.02550   1.72455
O     1.15759   2.49404  -1.07946
N    -0.49580   1.77297   0.34495
C    -1.54964   2.06136   1.13436
C    -1.98461   3.35364   1.36359
H    -2.83104   3.51369   2.00920
C    -1.32417   4.40017   0.73689
H    -1.64426   5.41730   0.88964
C    -0.25238   4.11787  -0.09691
H     0.28730   4.88842  -0.62004
C     0.12305   2.79855  -0.27281
C    -3.24667  -1.35145   0.91916
H    -3.73908  -1.61753   1.86306
C    -4.16524  -0.45776   0.09452
H    -3.66219  -0.14535  -0.81803
H    -4.45492   0.42728   0.65790
H    -5.06581  -1.00558  -0.17715
C    -2.86801  -2.62044   0.15996
H    -3.74719  -3.23263  -0.03021
H    -2.14577  -3.21197   0.72226
H    -2.41621  -2.35310  -0.79318
C    -1.25852  -1.13622   3.03381
H    -1.29703  -2.22921   2.96504
C    -2.23813  -0.64632   4.09371
H    -1.99432  -1.09433   5.05585
H    -3.26381  -0.90914   3.84608
H    -2.17947   0.43534   4.19363
C     0.17019  -0.70614   3.36151
H     0.25580   0.38219   3.32634
H     0.86465  -1.14067   2.64202
H     0.45695  -1.03767   4.35800
C     1.73827   0.82767  -3.06174
H     0.77962   1.23431  -3.41179
C     2.87183   1.70854  -3.57389
H     3.84287   1.28923  -3.32022
H     2.79795   2.70970  -3.15301
H     2.81185   1.78733  -4.65807
C     1.84048  -0.61880  -3.53188
H     1.78709  -0.66393  -4.61791
H     1.01445  -1.19727  -3.12275
H     2.77196  -1.07908  -3.21262
C     3.25546   0.97546  -0.45466
H     3.78887   1.83728  -0.87175
C     4.02834  -0.31514  -0.69076
H     4.92469  -0.33509  -0.07211
H     4.33468  -0.41021  -1.72939
H     3.41029  -1.17336  -0.43003
C     3.01658   1.19088   1.03957
H     2.43024   0.35942   1.44036
H     2.47710   2.12082   1.22264
H     3.96052   1.23399   1.58041
O    -0.94514  -0.01497  -1.35240
