31

Pt    0.00000   0.00000   0.00000
O     1.85744   0.30935   0.60464
N    -1.80489  -0.24556  -0.71888
N    -0.99220   1.21474  -2.31917
N     0.18078   1.12456  -1.61001
C    -2.02133   0.42844  -1.87701
C    -3.23074   0.28577  -2.57095
H    -3.38334   0.77306  -3.51895
C    -4.21974  -0.51403  -2.04323
H    -5.15427  -0.63191  -2.56897
C    -3.99469  -1.17332  -0.83663
H    -4.74969  -1.80213  -0.39667
C    -2.77506  -1.02170  -0.21895
H    -2.52820  -1.52260   0.70876
C    -1.14278   2.19226  -3.37166
H    -0.62574   3.11066  -3.08688
H    -2.19459   2.43340  -3.49729
H    -0.73928   1.83037  -4.32146
C     1.27998   1.69610  -2.00121
H     1.29947   2.24510  -2.93911
C     2.51362   1.66806  -1.29815
C     2.72954   0.99201  -0.05298
C     4.02967   1.07813   0.51312
H     4.17718   0.56579   1.45143
C     5.04371   1.76672  -0.08831
H     6.01798   1.80755   0.37607
C     4.82867   2.42138  -1.30750
H     5.63221   2.96385  -1.78113
C     3.59279   2.36538  -1.88684
H     3.41893   2.87021  -2.82788
O    -0.20591  -0.95368   1.33064
