32

Pt    0.00000   0.00000   0.00000
O     1.23521   0.96317  -1.21304
O     3.94229  -0.76873  -5.66516
N    -1.20556  -1.09679   1.10913
N    -0.57016  -2.67191  -0.44259
H    -0.57686  -3.59914  -0.85300
N     0.18173  -1.68224  -1.00309
C    -1.30280  -2.37297   0.66494
C    -2.10680  -3.32034   1.30680
H    -2.15617  -4.32667   0.92201
C    -2.81845  -2.93725   2.42098
H    -3.44655  -3.64745   2.93514
C    -2.71502  -1.62091   2.87295
H    -3.26014  -1.29169   3.74119
C    -1.90462  -0.73940   2.19530
H    -1.78455   0.29254   2.49940
C     0.90013  -1.89457  -2.06239
H     0.89060  -2.89405  -2.50083
C     1.70145  -0.91305  -2.69615
C     1.81738   0.43795  -2.23779
C     2.66548   1.29485  -2.99266
H     2.75163   2.31238  -2.64461
C     3.33893   0.87153  -4.09745
H     3.97597   1.53940  -4.65538
C     3.22081  -0.46042  -4.54573
C     2.41646  -1.32300  -3.84938
H     2.30142  -2.35013  -4.16177
C     3.86850  -2.07946  -6.16322
H     4.50922  -2.09891  -7.04338
H     2.84609  -2.34272  -6.45554
H     4.23593  -2.80904  -5.43318
O    -0.18580   1.38543   0.87667
