35

Pt    0.00000   0.00000   0.00000
O    -1.11652   0.15578  -1.62527
O     3.19709   0.40554   5.14882
N     1.07957  -0.02803   1.63886
N     0.39072   2.17563   1.73140
N    -0.26435   1.87016   0.56105
C     1.10651   1.15761   2.30296
C     1.82928   1.28259   3.48933
H     1.87663   2.19940   4.04948
C     2.52918   0.19423   3.99852
C     2.48845  -1.01543   3.29262
H     3.00871  -1.89377   3.63061
C     1.75579  -1.06947   2.13245
H     1.68768  -1.97796   1.54669
C     3.92659  -0.66278   5.71546
H     4.37027  -0.26233   6.62467
H     4.71881  -1.00466   5.04429
H     3.27310  -1.50181   5.96954
C     0.30318   3.51201   2.26995
H     0.70862   4.23566   1.55764
H     0.87318   3.58186   3.18795
H    -0.73734   3.76419   2.49117
C    -0.97536   2.74123  -0.08980
H    -1.06748   3.75610   0.28569
C    -1.67974   2.49423  -1.29928
C    -1.71338   1.23807  -1.98758
C    -2.47550   1.17464  -3.18455
H    -2.49295   0.22181  -3.69082
C    -3.15231   2.25341  -3.67710
H    -3.72007   2.16321  -4.59148
C    -3.11468   3.47956  -3.00237
H    -3.64928   4.33107  -3.39368
C    -2.39464   3.58382  -1.84585
H    -2.36203   4.52879  -1.31958
O     0.26052  -1.57518  -0.41644
