45

Cd    0.00000   0.00000   0.00000
I     1.88321   1.35821   1.51025
N    -1.07866   2.21600  -0.52370
N     1.26037   0.72513  -2.06223
C    -1.33909   2.59410  -1.91584
C    -0.08162   2.74907  -2.79469
C     0.55454   1.39266  -3.15968
C     0.94108   3.68123  -2.13795
C    -0.54702   3.38186  -4.11403
N    -1.18933  -0.57881   2.14564
N     1.13460  -2.15054   0.67034
C    -1.52976  -1.97298   2.44383
C    -0.32238  -2.91939   2.59918
C     0.35056  -3.24468   1.25052
C     0.69152  -2.36290   3.60343
C    -0.87494  -4.24514   3.14210
H    -0.51880   2.94414  -0.08103
H    -1.97651   2.20328  -0.03888
H    -1.88976   3.54742  -1.95624
H    -1.97953   1.82320  -2.35378
H    -0.23409   0.71801  -3.50487
H     1.23882   1.56578  -4.00556
H     1.67594  -0.12681  -2.44044
H     2.03378   1.31531  -1.75709
H     1.31220   3.28558  -1.19608
H     1.79009   3.83121  -2.80207
H     0.49091   4.65315  -1.94521
H    -1.27670   2.74433  -4.60773
H    -1.00459   4.35159  -3.93350
H     0.29427   3.52645  -4.78755
H    -2.06149  -0.04931   2.12811
H    -0.63503  -0.20081   2.91341
H    -2.16054  -2.34096   1.62957
H    -2.11750  -2.03251   3.37376
H     0.98622  -4.13126   1.40403
H    -0.42531  -3.51496   0.52858
H     1.89561  -1.91357   1.30617
H     1.56766  -2.50522  -0.18301
H     1.12145  -1.42050   3.27403
H     0.21230  -2.20014   4.56688
H     1.50223  -3.07428   3.74856
H    -1.60041  -4.66871   2.45152
H    -0.07301  -4.96589   3.28246
H    -1.36274  -4.09262   4.10186
O    -1.10964  -0.81714  -0.90746
