43

Pt    0.00000   0.00000   0.00000
Br    1.42438  -0.88586   1.75546
N     1.13813  -0.89945  -1.24087
C     1.96744  -1.49658  -1.77149
C     2.98386  -2.23507  -2.44980
H     3.95116  -1.76353  -2.27521
H     2.77637  -2.25604  -3.51988
H     3.01040  -3.25347  -2.06144
P    -1.33542   0.89626  -1.65050
C    -0.66731   0.66156  -3.32833
C    -0.69970  -0.63212  -3.84583
H    -1.17214  -1.41961  -3.27156
C    -0.14078  -0.90291  -5.07902
H    -0.17548  -1.90604  -5.47889
C     0.46367   0.11414  -5.80298
H     0.90265  -0.09685  -6.76677
C     0.50312   1.39966  -5.29027
H     0.97228   2.19210  -5.85449
C    -0.05706   1.67634  -4.05469
H    -0.02593   2.68115  -3.65714
C    -1.46401   2.69591  -1.46723
C    -0.29955   3.34813  -1.06484
H     0.60013   2.76433  -0.88314
C    -0.29959   4.71523  -0.87365
H     0.60172   5.21699  -0.55502
C    -1.46667   5.43670  -1.07447
H    -1.47266   6.50448  -0.91495
C    -2.62801   4.78905  -1.45998
H    -3.53931   5.35150  -1.59907
C    -2.63385   3.41838  -1.65625
H    -3.54693   2.91355  -1.93659
C    -3.02577   0.26562  -1.83795
C    -3.75317   0.55381  -2.99132
H    -3.30431   1.14838  -3.77640
C    -5.03994   0.06967  -3.12960
H    -5.60539   0.29560  -4.02188
C    -5.60360  -0.70545  -2.12707
H    -6.61012  -1.07985  -2.23995
C    -4.87692  -1.00481  -0.98707
H    -5.31273  -1.61372  -0.20966
C    -3.58766  -0.52346  -0.84162
H    -3.01531  -0.75786   0.04690
O    -0.96193   0.78984   1.08321
