35

Zn    0.00000   0.00000   0.00000
N     0.94863  -1.58847   1.12989
C     1.05138  -2.87601  -0.91196
C     1.33646  -2.71836   0.53706
C     1.99836  -3.70999   1.25926
C     2.26512  -3.51343   2.59986
C     1.87169  -2.32322   3.19159
C     1.21477  -1.37828   2.41900
C     0.76921  -0.06386   2.98189
H     1.43989  -3.81697  -1.29051
H    -0.02312  -2.83038  -1.08929
H     1.50233  -2.05117  -1.46461
H     2.30000  -4.61883   0.76344
H     2.77655  -4.26937   3.17671
H     2.07342  -2.12709   4.23265
H     1.15948   0.06408   3.99147
H     1.19729   0.72041   2.35153
Cl    1.79608   0.87550  -0.98155
N    -0.94888   1.58830   1.12989
C    -0.76932   0.06377   2.98194
C    -1.33673   2.71818   0.53705
C    -1.21494   1.37816   2.41903
H    -1.15951  -0.06414   3.99155
H    -1.19744  -0.72053   2.35164
C    -1.05170   2.87579  -0.91198
C    -1.99862   3.70981   1.25925
C    -1.87183   2.32312   3.19162
H    -1.44023   3.81675  -1.29054
H     0.02279   2.83017  -1.08933
H    -1.50267   2.05095  -1.46460
C    -2.26531   3.51330   2.59987
H    -2.30032   4.61863   0.76341
H    -2.07346   2.12704   4.23271
H    -2.77672   4.26926   3.17672
O    -1.33095  -0.64870  -0.72820
