41

I     2.27907   1.33373   0.56824
Cd    0.00000   0.00000   0.00000
N     0.58207  -0.70083  -2.42236
N    -1.17590  -2.35941  -1.17547
H    -0.24719  -2.76312  -1.22305
H    -1.86592  -3.02011  -0.83856
C     1.46685   0.05594  -3.02827
H     2.40798   0.20319  -2.51144
C     1.24458   0.66197  -4.27364
H     2.01973   1.26779  -4.71545
C     0.02844   0.49939  -4.88090
H    -0.19978   0.98371  -5.81943
C    -0.95261  -0.30443  -4.26530
C    -2.24379  -0.49642  -4.79517
H    -2.50165  -0.01518  -5.72600
C    -3.15286  -1.26362  -4.12145
H    -4.15082  -1.39230  -4.51129
C    -2.80748  -1.90572  -2.92593
H    -3.54277  -2.51126  -2.41543
C    -1.55203  -1.76188  -2.38484
C    -0.60727  -0.91941  -3.03403
N    -0.58543  -0.69981   2.42148
N     1.17134  -2.36022   1.17534
H     0.24239  -2.76334   1.22298
H     1.86096  -3.02145   0.83864
C    -1.46966   0.05789   3.02702
H    -2.41072   0.20551   2.51017
C    -1.24727   0.66363   4.27251
H    -2.02195   1.27028   4.71400
C    -0.03133   0.50026   4.87997
H     0.19729   0.98499   5.81819
C     0.94936  -0.30407   4.26446
C     2.24038  -0.49677   4.79444
H     2.49856  -0.01535   5.72509
C     3.14893  -1.26489   4.12104
H     4.14691  -1.39381   4.51076
C     2.80313  -1.90717   2.92574
H     3.53808  -2.51323   2.41536
C     1.54782  -1.76259   2.38452
C     0.60369  -0.91912   3.03332
O    -1.39205   0.81479  -0.34757
