41

Zr    0.00000   0.00000   0.00000
Cl    2.11887   0.95315  -0.28116
C     0.65577  -0.19373   2.35463
C    -0.76212  -0.19419   2.35241
C    -1.20715  -1.37792   1.71765
C    -0.06803  -2.13063   1.35496
C     1.08041  -1.39333   1.72124
C     1.55648   0.78829   3.06287
C     1.52142   0.49983   4.56937
C     1.15441   2.23905   2.78808
H    -1.40159   0.52913   2.84356
H    -2.23526  -1.71722   1.67070
H    -0.07359  -3.15339   1.00238
H     2.10695  -1.73833   1.65812
H     2.58241   0.63809   2.70250
H     0.51929   0.66092   4.95949
H     1.80492  -0.53134   4.76634
H     2.20894   1.15662   5.09659
H     0.13503   2.43082   3.11857
H     1.81852   2.91436   3.32368
H     1.22671   2.46222   1.72230
C    -1.37538   0.04739  -2.08974
C    -0.02158   0.17671  -2.48352
C     0.65234  -1.03178  -2.17635
C    -0.27775  -1.91139  -1.58875
C    -1.52382  -1.23915  -1.50555
C    -2.51756   0.98495  -2.41456
H     0.41687   1.01246  -3.01484
H     1.67356  -1.27064  -2.44948
H    -0.10915  -2.96202  -1.39128
H    -2.46557  -1.69126  -1.21489
C    -3.43360   0.31421  -3.44740
C    -2.02093   2.32465  -2.95778
H    -3.10275   1.17286  -1.50299
H    -2.87129   0.08364  -4.34954
H    -3.85058  -0.61091  -3.05782
H    -4.25355   0.97849  -3.70945
H    -1.51972   2.18517  -3.91335
H    -2.86249   2.99639  -3.10984
H    -1.33243   2.79348  -2.25727
O    -0.77502   1.44232   0.20385
