68

Pd    0.00000   0.00000   0.00000
P    -2.08775   0.51274  -0.48795
N     2.01845  -0.50277  -0.28234
C     3.72019  -2.14209  -0.16279
H     4.78140  -1.93201  -0.00471
H     3.53443  -3.20264   0.04006
O    -2.26729   0.15784  -2.08226
C     0.06326  -0.31339  -1.93221
N     3.33059  -1.80601  -1.52909
C     1.80700  -1.99183   1.55809
C    -3.65254  -0.05166   0.21063
C    -1.07785  -0.17908  -2.71638
C     4.48854  -1.02352  -3.50950
H     4.04746  -0.04666  -3.37394
C    -4.73786  -0.43811  -0.56538
H    -4.65661  -0.42330  -1.64241
C     1.27580  -0.69568  -2.51875
C     5.96220  -2.50004  -4.72208
C     2.80111  -1.23836   0.69370
H     3.37022  -0.54474   1.32415
C     5.35498  -1.25985  -4.55790
H     5.57614  -0.46238  -5.25258
C     4.19033  -2.04105  -2.60494
C    -1.03968   3.05459  -0.35703
H    -0.09094   2.51674  -0.21668
C     2.28026  -0.93599  -1.48304
C    -0.30450  -3.14449   1.75578
H    -1.17239  -3.59216   1.29086
C     1.92206  -1.99358   2.93915
H     2.77311  -1.51830   3.40495
C    -1.02709  -0.40858  -4.07927
H    -1.91336  -0.29648  -4.68483
C    -2.22357   2.33346  -0.48492
C    -3.72907  -0.08041   1.60022
H    -2.86011   0.20334   2.18086
C     4.80603  -3.28000  -2.75154
H     4.59648  -4.07094  -2.04777
C     0.93445  -2.56429   3.72386
H     1.02938  -2.54431   4.79905
C     1.32719  -0.95339  -3.88970
H     2.23923  -1.28172  -4.36337
C    -3.43372   2.99717  -0.64141
H    -4.34870   2.42894  -0.73639
C    -3.45737   4.38031  -0.66896
H    -4.39685   4.90035  -0.78765
C    -0.18718  -3.12054   3.13630
H    -0.97430  -3.53075   3.75131
C     0.69012  -2.59152   0.96183
H     0.61840  -2.68941  -0.12499
C     5.67862  -3.49995  -3.80033
H     6.14692  -4.46801  -3.90411
C    -1.07106   4.43741  -0.38257
H    -0.15670   5.00223  -0.27608
C    -2.27939   5.09846  -0.53837
H    -2.30400   6.17830  -0.55410
C     0.18193  -0.79695  -4.64855
H     0.22138  -0.98982  -5.71004
C    -5.90785  -0.84007   0.05487
H    -6.75754  -1.13950  -0.54173
C    -4.90236  -0.48265   2.21047
H    -4.96900  -0.50726   3.28793
C     6.88961  -2.74895  -5.87132
H     6.31770  -3.01590  -6.76075
H     7.57204  -3.56606  -5.65095
H     7.46801  -1.85697  -6.10170
C    -5.99097  -0.85931   1.43808
H    -6.90717  -1.17462   1.91581
O    -0.05631   0.40959   1.59736
