16

Au    0.00000   0.00000   0.00000
Cl    1.02247   2.02941   0.25592
Cl   -1.00382  -2.01830  -0.27071
S    -1.91297   0.60179   1.34265
C    -1.67199   2.20333   1.78257
H    -0.74668   2.67454   1.44986
C    -3.75163   2.34184   2.97054
H    -4.48304   3.13417   3.11272
H    -3.59208   1.82618   3.91932
H    -4.12656   1.61541   2.25051
C    -2.22738   4.26331   2.86957
H    -2.98237   4.93296   2.45353
H    -1.24827   4.56170   2.50259
H    -2.24445   4.35412   3.95699
N    -2.51331   2.90229   2.48912
O     1.26771  -0.50655  -0.92673
