12

Au    0.00000   0.00000   0.00000
S     0.09304  -0.23613  -2.32507
S     2.13563   0.76460  -4.20932
S     2.39309   1.35599  -1.34223
C     1.49672   0.60390  -2.61195
C     3.76660   1.41709  -3.68313
H     4.17405   1.99331  -4.51177
H     4.40800   0.55847  -3.48085
C     3.55068   2.26165  -2.45270
H     4.47278   2.42312  -1.89861
H     3.08798   3.22021  -2.68845
O     0.05203   0.23000   1.63306
