34

Y     0.00000   0.00000   0.00000
Cl    2.27207   0.56810   0.74033
Cl   -2.47490   0.09199  -0.29063
O    -0.66550   2.44290  -0.41404
O    -0.62152   1.45907   2.09898
O    -0.38515  -1.26080   2.18113
O     0.41509   0.51248  -2.28911
C    -0.66697   3.36191   0.67154
C    -0.03048   2.74318   1.92324
C    -0.23419   0.81844   3.30520
C    -0.90025  -0.55466   3.30455
C    -0.22411  -0.29950  -3.28665
C     0.83423  -1.30430  -3.77450
C     2.14906  -0.76153  -3.18982
C     1.76423   0.64915  -2.75103
H    -1.69052   3.67426   0.89691
H    -0.07956   4.23452   0.36807
H     1.05434   2.63358   1.78507
H    -0.23129   3.37548   2.79775
H    -0.56921   1.40622   4.17053
H     0.85865   0.69956   3.33572
H    -0.66056  -1.08450   4.23431
H    -1.98737  -0.42988   3.21006
H    -0.55450   0.35679  -4.10296
H    -1.09548  -0.77707  -2.82999
H     0.62644  -2.30134  -3.39229
H     0.85891  -1.34033  -4.86244
H     2.44184  -1.34702  -2.31582
H     2.96562  -0.76288  -3.90775
H     1.77681   1.34772  -3.59953
H     2.37359   1.04466  -1.93497
H    -1.57016   2.06330  -0.49280
H    -0.79517  -2.14002   2.13114
O     0.18272  -1.59038  -0.39974
