42

Zr    0.00000   0.00000   0.00000
Cl   -0.39297  -1.40975  -1.79962
C    -0.83517   2.22286   0.30422
C    -1.54011   1.69053  -0.84162
C    -2.43154   0.63567  -0.39757
C    -2.27901   0.50354   1.02408
C    -1.29326   1.47637   1.45584
C    -0.99888   1.50600   2.84083
C    -1.63346   0.64089   3.70059
C    -2.58852  -0.28425   3.26115
C    -2.92105  -0.35023   1.92986
C    -1.53828   1.97485  -2.22917
C    -2.35350   1.26655  -3.08014
C    -3.21426   0.25929  -2.62617
C    -3.26434  -0.05236  -1.28918
C     0.47732   3.03060   0.23493
C     0.49175   4.05847  -0.90769
C     0.77279   3.81647   1.52171
C     1.47497   1.89108   0.00968
C     1.94756   1.01444   1.02814
C     2.50622  -0.13006   0.40806
C     2.34775   0.00450  -0.98291
C     1.68915   1.23270  -1.23497
H    -0.32042   2.23093   3.26030
H    -1.39514   0.68161   4.75324
H    -3.06351  -0.93802   3.97549
H    -3.66806  -1.04854   1.57670
H    -0.94823   2.77704  -2.64187
H    -2.33767   1.50024  -4.13449
H    -3.83890  -0.26469  -3.33225
H    -3.93452  -0.81737  -0.92039
H    -0.43419   4.62856  -0.90762
H     1.31941   4.75007  -0.76696
H     0.62821   3.59961  -1.87920
H    -0.10564   4.38241   1.82267
H     1.08260   3.17690   2.33882
H     1.58668   4.51574   1.34276
H     2.01237   1.21885   2.09032
H     3.04525  -0.92070   0.91564
H     2.74227  -0.66434  -1.73803
H     1.52008   1.63531  -2.22661
O    -0.01016  -1.21333   1.11814
