52

Cu    0.00000   0.00000   0.00000
N     1.14414   1.78646  -0.19387
N    -0.16682  -1.03304  -1.81536
N    -1.16652   1.07683   1.42731
N    -1.38976   1.37136  -1.34029
C     1.56510   4.34784   0.71440
C     0.48423   2.80181  -0.74594
C    -0.67642   1.15672   2.65963
H    -0.17259   0.27185   3.02458
C     0.67101   4.11948  -0.34036
C     2.27063   3.28288   1.28084
C    -1.97918   3.30530   1.64072
H    -2.51997   4.13379   1.20685
C     2.01948   2.01901   0.76871
H     2.53734   1.15251   1.15835
C    -1.81362   2.13080   0.92507
C    -0.79242   2.29062   3.44240
H    -0.38218   2.30603   4.43952
C    -2.39031   1.93487  -0.45374
H    -3.21506   1.22067  -0.36413
H    -2.79924   2.88522  -0.83567
C    -0.46882   2.38410  -1.83763
H    -1.01121   3.24778  -2.24905
H     0.12467   1.93213  -2.63876
C    -0.83710  -0.45817  -2.81402
C    -0.58780  -0.76924  -4.14119
H    -1.14621  -0.28187  -4.92677
C    -1.90232   0.52640  -2.40191
H    -2.25281   1.10271  -3.27378
H    -2.74859  -0.04603  -2.00850
C     0.75405  -1.94625  -2.09701
H     1.25728  -2.39089  -1.24875
C     0.37744  -1.72031  -4.43837
H     0.58856  -1.98286  -5.46433
C     1.05784  -2.32550  -3.39294
H     1.80822  -3.07750  -3.57589
C    -1.45667   3.39196   2.92234
H    -1.57655   4.29382   3.50477
O     1.77766   5.64079   1.15531
C    -0.03460   5.27393  -0.98727
H    -1.11133   5.21034  -0.83146
H     0.15851   5.28948  -2.05861
H     0.32786   6.20596  -0.56201
C     3.26387   3.47947   2.38096
H     2.80359   3.27077   3.34732
H     3.63551   4.50153   2.38070
H     4.09677   2.79179   2.25756
C     1.04899   5.98276   2.31608
H    -0.02826   5.99155   2.11459
H     1.37539   6.98350   2.59378
H     1.24828   5.29020   3.13894
O     0.89915  -1.00569   0.95006
