62

Cu    0.00000   0.00000   0.00000
N     0.28224  -1.23150  -2.03445
N    -1.18496   0.88510  -1.47789
N    -0.65836  -1.95403   0.33734
C    -0.98442  -2.28475   1.57801
H    -0.50976  -1.71068   2.36229
C    -1.22803  -2.59075  -0.68124
C    -2.47294  -3.97300   0.82183
C    -2.15388  -3.61538  -0.49275
C    -0.84811  -2.13025  -2.06781
H    -0.65808  -3.00408  -2.71505
H    -1.70382  -1.58853  -2.48308
C    -1.88963  -3.28521   1.89214
C    -0.65266   0.92005  -2.69614
C    -0.89620   1.96372  -3.58640
C    -1.73502   2.99983  -3.16144
C     0.27019  -0.21767  -3.06358
H    -0.02047  -0.63124  -4.04487
H     1.28246   0.18672  -3.16619
C    -2.00813   1.85267  -1.10050
H    -2.42105   1.76193  -0.10504
C    -2.32773   2.94133  -1.89479
C    -0.27950   1.98951  -4.95099
H    -0.54616   1.09317  -5.50981
H     0.80747   2.03046  -4.88043
H    -0.63517   2.85625  -5.50108
C    -3.27199   3.99373  -1.40715
H    -4.06142   3.54015  -0.81272
H    -3.71366   4.52796  -2.24526
H    -2.74740   4.70515  -0.76893
C    -1.25098   5.21866  -3.74906
H    -1.40743   5.57606  -2.72771
H    -1.59861   5.97016  -4.45573
H    -0.18009   5.04148  -3.90048
C    -2.80548  -4.30661  -1.65093
H    -2.07245  -4.86996  -2.22943
H    -3.27207  -3.57973  -2.31371
H    -3.56996  -4.98876  -1.28941
C    -2.23775  -3.58068   3.31663
H    -3.22422  -4.03429   3.37851
H    -2.22841  -2.66063   3.89585
H    -1.50928  -4.26164   3.75878
C    -2.84553  -6.22161   1.38826
H    -2.24408  -6.62495   0.56508
H    -3.68723  -6.88463   1.58026
H    -2.22032  -6.15773   2.28340
C     2.53284  -0.97102  -1.14500
C     1.55694  -1.88182  -1.84839
H     1.99499  -2.23597  -2.79889
H     1.40066  -2.75570  -1.20726
N     2.02308   0.07660  -0.50119
C     2.83815   0.88977   0.16136
H     2.36544   1.71598   0.67460
C     4.20610   0.69910   0.21179
H     4.83148   1.38500   0.75999
O    -2.00132   4.05075  -4.01875
O    -3.40345  -4.97066   1.04385
C     3.89523  -1.23647  -1.14840
H     4.27675  -2.09371  -1.68334
C     4.74791  -0.38888  -0.45938
H     5.81181  -0.57336  -0.44742
O    -0.19194   0.87392   1.38633
