30

Ir    0.00000   0.00000   0.00000
Cl   -0.30483   1.85543   1.31511
Cl   -1.94061   0.44792  -1.14205
N    -1.23418  -0.89313   1.31415
C     0.79483  -1.63736  -1.64816
H     0.19104  -1.32870  -2.49587
C     0.20322  -2.37896  -0.67832
H    -0.84980  -2.61470  -0.78730
C     0.95233  -3.18272   0.35522
H     1.85803  -3.57161  -0.11153
H     0.33914  -4.04310   0.63118
C     1.31196  -2.42887   1.65287
H     0.47469  -2.51053   2.34815
H     2.16780  -2.92471   2.12414
C     1.64757  -0.96685   1.50006
H     1.43879  -0.36534   2.37955
C     2.41993  -0.43040   0.52326
H     2.75095   0.59516   0.63354
C     3.10140  -1.22843  -0.55619
H     3.39378  -2.19295  -0.13773
H     4.01575  -0.70471  -0.83890
C     2.27098  -1.42791  -1.83923
H     2.39318  -0.54206  -2.46272
H     2.66623  -2.28396  -2.39682
C    -2.22355  -0.87020   1.89769
C    -3.45021  -0.84451   2.62118
H    -4.20018  -0.34945   2.00339
H    -3.31362  -0.27761   3.54195
H    -3.77932  -1.85645   2.85544
O     0.74506   1.02041  -1.06120
