46

Pd    0.00000   0.00000   0.00000
C     1.76564   0.62325  -0.85068
N    -1.86223  -1.02037   0.90302
C    -2.04178  -2.29011   0.51557
C    -3.08321  -3.05947   1.03475
C    -3.95992  -2.49358   1.94044
C    -3.77466  -1.17249   2.31487
C    -2.70398  -0.48283   1.77283
C    -0.42500   1.97891   0.36388
N     0.09205  -2.19929  -0.57524
C    -1.07565  -2.84481  -0.45066
C    -1.35238  -3.98369  -1.20427
C    -0.38754  -4.47530  -2.06580
C     0.83238  -3.82552  -2.14548
C     1.01999  -2.68107  -1.38586
C     1.00299  -0.08969   1.84738
C     1.40322  -1.49181   1.82723
O     2.44306  -1.87559   1.29494
C     0.48167  -2.51187   2.44280
C    -0.44233  -2.22725   3.44437
C    -1.27091  -3.22050   3.93568
C    -1.19026  -4.51053   3.43920
C    -0.25091  -4.81408   2.46727
C     0.58271  -3.82508   1.98407
H     1.64628   0.56832  -1.93723
H     2.07422   1.63249  -0.57411
H     2.52330  -0.09018  -0.51312
H    -0.20906   2.57797  -0.52399
H    -1.50789   2.00548   0.53651
H     0.09839   2.40562   1.22187
H    -3.19485  -4.09206   0.74882
H    -4.77186  -3.07499   2.35032
H    -4.43714  -0.68887   3.01448
H    -2.51515   0.54812   2.04994
H    -2.31581  -4.46232  -1.14287
H    -0.58807  -5.35045  -2.66572
H     1.61718  -4.18278  -2.79231
H     1.95637  -2.13835  -1.41833
H     1.86962   0.57181   1.84936
H     0.29631   0.17779   2.63292
H    -0.51348  -1.23536   3.86569
H    -1.98366  -2.98593   4.71358
H    -1.84607  -5.27932   3.82095
H    -0.16632  -5.82306   2.09060
H     1.33315  -4.04930   1.23918
O    -0.84519   0.10280  -1.41336
