51

Hf    0.00000   0.00000   0.00000
Si   -1.08935   0.68733  -2.26646
C     0.31120  -2.49671  -1.19764
C     0.37349  -2.60912   0.19401
C     1.44247  -1.80940   0.66250
C     2.05590  -1.21030  -0.47841
C     1.34366  -1.63996  -1.61772
C    -0.48249   2.06308   1.28753
C     0.30262   1.22192   2.12623
C     1.62619   1.18537   1.59251
C     1.63911   1.96131   0.40591
C     0.34425   2.51567   0.22362
C    -1.89627   2.51053   1.52550
C    -0.13534   0.65782   3.45081
C     2.84926   0.69275   2.31717
C     2.83644   2.30960  -0.43250
C    -0.00334   3.59200  -0.76331
C    -1.22906  -1.30293  -4.36724
C    -1.69910  -2.45031  -4.98054
C    -2.72211  -3.17719  -4.39624
C    -3.27038  -2.74564  -3.19925
C    -2.79096  -1.60027  -2.59120
C    -1.76095  -0.85512  -3.16214
H    -0.28992   1.37464  -3.33728
H    -2.29171   1.58545  -2.21969
H    -0.36110  -3.03560  -1.84513
H    -0.22681  -3.27048   0.80087
H     1.86666  -1.86343   1.65664
H     3.01351  -0.70934  -0.49667
H     1.61684  -1.44170  -2.64322
H    -1.91402   3.55737   1.83469
H    -2.49822   2.41743   0.61918
H    -2.36627   1.91961   2.30724
H    -0.07133   1.42153   4.22890
H    -1.16675   0.31013   3.40652
H     0.49052  -0.18044   3.75373
H     3.36810   1.54007   2.77067
H     2.58745   0.00586   3.11865
H     3.55491   0.19409   1.65416
H     3.03963   3.37979  -0.37377
H     3.72330   1.78469  -0.08646
H     2.67306   2.06229  -1.48393
H     0.29134   4.56528  -0.36417
H     0.51628   3.45016  -1.70853
H    -1.07236   3.62301  -0.95763
H    -0.43284  -0.73898  -4.83325
H    -1.26794  -2.77939  -5.91574
H    -3.09072  -4.07536  -4.87065
H    -4.06970  -3.30788  -2.73746
H    -3.22213  -1.27813  -1.65265
O    -1.42037  -0.52480   0.65545
