43

Zn    0.00000   0.00000   0.00000
Cl   -1.86202   0.70306   0.89507
N     3.02159   2.06373  -1.62048
N     1.22952   1.68981  -0.34945
N     1.99278  -0.74029   0.37899
C     2.95845   0.07930  -0.03362
C     2.11884   3.07169  -1.89289
C     2.43657   1.27477  -0.67794
C     0.99103   2.81514  -1.07949
C    -0.12999   3.64026  -1.09761
H    -0.98019   3.40935  -0.47624
C     4.29685  -0.22361   0.20758
H     5.08354   0.47384  -0.03023
C     2.26637  -1.90352   0.92835
C     4.59867  -1.43437   0.81403
H     5.62740  -1.69307   1.01582
O    -0.05500  -1.96669   1.39355
C     3.58012  -2.30697   1.15388
H     3.79030  -3.26529   1.60131
C     2.14174   4.18312  -2.72806
H     2.98945   4.42339  -3.34957
C    -0.09351   4.72727  -1.93993
H    -0.94161   5.39235  -1.99267
C     1.07914  -2.78770   1.22151
H     1.26282  -3.34779   2.15414
C     3.80509   1.55496  -3.88137
H     2.96739   0.86571  -3.96392
H     4.64723   1.14456  -4.43242
H     3.52127   2.49867  -4.33550
C     4.19257   1.72531  -2.41237
H     4.53643   0.75052  -2.05476
C     1.02649   4.99449  -2.73414
H     1.01714   5.86394  -3.37437
C     0.90134  -3.75632   0.04868
H     0.07367  -4.43476   0.24639
H     1.80355  -4.34177  -0.10607
H     0.68755  -3.18566  -0.85489
C     5.30182   2.75559  -2.20949
H     5.54427   2.85388  -1.15315
H     5.00127   3.73082  -2.58034
H     6.19468   2.44301  -2.74430
H    -0.85294  -2.47184   1.19581
O     0.05816  -0.66652  -1.50827
