37

Pt    0.00000   0.00000   0.00000
S    -1.63995   1.51777   0.74737
Cl    1.71894   0.94400   1.20892
C    -1.90437   2.35609  -0.85837
C    -0.71093   3.24494  -1.01839
C    -0.22680   3.73157  -2.21875
C     0.89349   4.54830  -2.21062
C     1.51604   4.87619  -1.01812
C     1.03020   4.39254   0.18681
C    -0.08429   3.57532   0.18104
C    -0.71422   2.95745   1.38927
H    -2.01085   1.60723  -1.64180
H    -2.83013   2.93319  -0.77853
H    -0.70957   3.46626  -3.14702
H     1.28779   4.92146  -3.14367
H     2.39460   5.50322  -1.02515
H     1.52287   4.63156   1.11642
H    -1.43786   3.62653   1.86249
H     0.01419   2.61776   2.12279
S     1.64010  -1.51123  -0.75938
C     1.92451  -2.35543   0.83974
C     0.71414  -2.95173  -1.39877
C     0.73777  -3.25180   1.00729
H     2.03415  -1.60948   1.62552
H     2.85282  -2.92669   0.74824
C     0.09946  -3.57806  -0.18709
H     1.43558  -3.61538  -1.88281
H    -0.02333  -2.61140  -2.12290
C     0.26944  -3.74821   2.20989
C    -1.01208  -4.39930  -0.18536
C    -0.84741  -4.56968   2.20926
H     0.76167  -3.48688   3.13430
C    -1.48251  -4.89219   1.02192
H    -1.51427  -4.63438  -1.11088
H    -1.22941  -4.95048   3.14434
H    -2.35885  -5.52221   1.03503
O    -1.23289  -0.67670  -0.86288
