57

Pt    0.00000   0.00000   0.00000
Cl   -0.58428   0.21156  -2.23795
N     1.31567  -1.44637   2.24862
N    -0.06580   0.00332   3.03557
N     2.20065   1.94347  -0.77335
N     0.29544   2.91574  -0.54044
C     0.93149   1.74103  -0.37294
C     1.16133   3.84802  -1.04331
H     0.87298   4.85638  -1.25432
C     2.35783   3.23690  -1.19469
H     3.28470   3.62175  -1.56464
C    -1.12507   3.12420  -0.33546
H    -1.52274   2.15330  -0.00015
C    -1.79676   3.47527  -1.65920
H    -2.87007   3.55974  -1.51496
H    -1.60309   2.68047  -2.37628
H    -1.42205   4.41560  -2.05689
C    -1.35844   4.18921   0.73330
H    -0.80259   3.95472   1.63873
H    -2.41596   4.23991   0.97655
H    -1.04271   5.16733   0.37684
C     3.18709   0.89001  -0.89231
H     2.79594   0.05789  -0.29319
C     3.27414   0.44313  -2.34991
H     3.63985   1.25063  -2.98030
H     2.28358   0.15205  -2.69432
H     3.94320  -0.40753  -2.44339
C     4.53733   1.33033  -0.33603
H     4.42424   1.72788   0.67061
H     4.99041   2.09320  -0.96430
H     5.21183   0.47906  -0.30057
C     0.50536  -0.43055   1.89645
C     1.25217  -1.64727   3.60044
H     1.81700  -2.40394   4.10330
C     0.38051  -0.74008   4.09552
H     0.05410  -0.57696   5.10095
C     2.05013  -2.28047   1.31689
H     1.81993  -1.88221   0.31609
C     1.53449  -3.71450   1.38195
H     1.70259  -4.15204   2.36333
H     2.04191  -4.32106   0.63721
H     0.46823  -3.71744   1.16643
C     3.54957  -2.19090   1.58989
H     3.87448  -1.15299   1.61922
H     4.09702  -2.70554   0.80538
H     3.79594  -2.65782   2.54104
C    -1.11955   0.99532   3.08263
H    -1.07588   1.51033   2.11458
C    -2.46963   0.29139   3.20059
H    -2.54189  -0.25066   4.14085
H    -2.57767  -0.41594   2.38046
H    -3.27717   1.01603   3.14902
C    -0.88512   1.99935   4.20681
H    -1.60362   2.81044   4.12619
H     0.11849   2.41528   4.14479
H    -1.01092   1.53407   5.18124
O    -0.91247  -1.36310   0.17848
