25

Pt    0.00000   0.00000   0.00000
Cl   -1.19075   1.49374  -1.14583
O     0.06713   2.18737   1.68318
O     0.09299  -1.18115   2.51143
N    -0.03050   0.97152   1.56383
N     0.81532  -1.43256   1.32876
C     0.07507   0.19775   2.82830
C    -1.18243   0.46010   3.65406
C     1.35527   0.61183   3.55856
C     1.19377  -3.59930   2.32798
C     1.35146  -2.58980   1.24290
C     2.15770  -2.93095   0.04946
H    -1.24872   1.52196   3.87425
H    -1.13928  -0.10767   4.57855
H     1.35589   1.69051   3.69183
H     1.47741  -3.16488   3.28633
H     2.40990  -2.04158  -0.52254
H     1.57971  -3.58563  -0.60252
H    -2.05901   0.15412   3.08703
H     2.22572   0.32900   2.96757
H     1.40307   0.12342   4.52757
H     1.78720  -4.48607   2.13295
H     3.05960  -3.45952   0.35098
H     0.14257  -3.87526   2.40888
O     0.19517  -0.89517  -1.37225
