31

Re    0.00000   0.00000   0.00000
C     0.89471  -0.65874   1.59431
O     1.37455  -1.04104   2.55914
N     0.52130  -1.33529  -1.01708
O     0.78861  -2.23729  -1.70677
C    -2.19562  -0.40341   0.41610
C    -1.96115   0.73295   1.29946
C    -1.78987   1.87386   0.49359
C    -1.97847   1.48977  -0.89340
C    -2.27430   0.11658  -0.94107
C    -2.82070  -1.69071   0.86036
C    -2.12876   0.70628   2.78843
C    -1.63377   3.28681   0.94278
C    -2.00389   2.46546  -2.01861
C    -2.77087  -0.65389  -2.12531
H    -3.89566  -1.55109   0.98871
H    -2.66407  -2.47759   0.12584
H    -2.40376  -2.02152   1.80905
H    -3.18177   0.85652   3.03530
H    -1.81683  -0.24923   3.20567
H    -1.55171   1.49439   3.26857
H    -2.57835   3.81772   0.80896
H    -1.35368   3.34111   1.99249
H    -0.87528   3.80589   0.35618
H    -2.86446   3.12801  -1.91038
H    -1.10749   3.08772  -2.01922
H    -2.07368   1.96187  -2.98006
H    -3.86011  -0.58827  -2.16760
H    -2.37101  -0.25651  -3.05640
H    -2.49914  -1.70577  -2.05765
O     1.02167   1.22640  -0.41790
