34

Pd    0.00000   0.00000   0.00000
O    -0.03570   3.40187   2.20320
N    -1.10516  -1.42750   0.89470
N    -0.54246   0.79276   2.77960
N    -0.30551   1.20046   1.55833
N     0.86211   1.64484  -0.75289
C    -1.69049  -2.38422   0.13105
C    -2.02813  -2.09163  -1.20670
C    -2.58204  -3.06075  -1.99925
C    -2.82895  -4.34438  -1.48950
C    -2.57245  -4.63213  -0.17585
C    -2.02226  -3.65411   0.67281
C    -1.80173  -3.85047   2.05517
C    -1.38539  -2.80455   2.82401
C    -1.04269  -1.56823   2.21727
C    -0.76969  -0.43178   3.08576
C     0.05150   2.50923   1.38428
C     0.64767   2.72644   0.01556
C     1.02561   3.99899  -0.38930
C     1.63604   4.15931  -1.62283
C     1.85427   3.03584  -2.40523
C     1.45142   1.79428  -1.93497
H    -1.85673  -1.07730  -1.57562
H    -2.83775  -2.83952  -3.02385
H    -3.24887  -5.09908  -2.13705
H    -2.80054  -5.60483   0.23408
H    -2.00626  -4.81708   2.49169
H    -1.28080  -2.90176   3.89338
H    -0.85686  -0.61837   4.14746
H     0.83207   4.82652   0.27528
H     1.93768   5.13762  -1.96414
H     2.33109   3.11145  -3.36924
H     1.60727   0.88732  -2.51011
O     0.62394  -1.00507  -1.15024
