51

Rh    0.00000   0.00000   0.00000
N    -1.73531  -1.00749   0.16226
C     0.54919  -1.48758   1.21203
C     1.78747  -1.63243   1.80477
H     2.56896  -0.89855   1.67334
C     2.06925  -2.72674   2.62577
C     1.08433  -3.68510   2.86447
H     1.27948  -4.53844   3.49465
C    -0.16814  -3.53131   2.30804
H    -0.92972  -4.26699   2.52137
C    -0.45361  -2.44113   1.48951
C    -1.74330  -2.12779   0.91969
C    -2.92967  -2.83476   1.12900
H    -2.91756  -3.72568   1.73558
C    -4.10521  -2.38062   0.57153
H    -5.02996  -2.91641   0.72391
C    -4.08240  -1.20823  -0.17638
H    -4.98306  -0.80646  -0.61189
C    -2.87874  -0.55524  -0.34736
H    -2.83052   0.37234  -0.90479
O     3.32943  -2.76619   3.13639
C     3.67403  -3.81139   4.01249
H     4.70396  -3.61959   4.30986
H     3.61737  -4.78697   3.51820
H     3.03658  -3.81665   4.90227
C     0.60556  -0.19284  -2.10525
C    -0.12807   1.05924  -2.07125
C     0.52521   1.91267  -1.17570
C     1.68592   1.21349  -0.64272
C     1.78975  -0.03648  -1.31952
C     0.36583  -1.29719  -3.08904
H     0.80308  -1.03130  -4.05397
H    -0.69800  -1.47390  -3.23798
H     0.82410  -2.22358  -2.75039
C    -1.26601   1.40710  -2.98283
H    -0.87122   1.81343  -3.91677
H    -1.91757   2.15775  -2.53914
H    -1.86078   0.52899  -3.22841
C     0.20201   3.33711  -0.85675
H     1.03371   3.97776  -1.15330
H     0.04451   3.46041   0.21452
H    -0.69388   3.66471  -1.37806
C     2.74266   1.89370   0.17466
H     3.27027   2.62664  -0.43945
H     3.46874   1.18067   0.55728
H     2.29419   2.41408   1.01874
C     2.95703  -0.97491  -1.33262
H     3.45972  -0.90286  -2.29906
H     2.64430  -2.00737  -1.18778
H     3.67397  -0.72377  -0.55644
O    -0.44370   0.81114   1.36663
