57

Pd    0.00000   0.00000   0.00000
Cl    0.43828  -1.89385  -1.06594
N    -0.24610  -0.79539   1.81117
N    -0.63637   1.59783   1.00887
C    -0.68093   0.03629   2.72648
C    -0.90910   1.38043   2.27258
C     0.03031  -2.13498   2.10130
C     1.28855  -2.63828   1.76699
H     2.01850  -1.97355   1.31608
C     1.59019  -3.96011   2.02058
H     2.56628  -4.34025   1.75838
C     0.65119  -4.81245   2.59123
C    -0.60227  -4.30257   2.91179
H    -1.34796  -4.95403   3.34373
C    -0.91525  -2.97845   2.68064
H    -1.90038  -2.59975   2.91173
C     0.98564  -6.24479   2.87036
H     1.78084  -6.59142   2.21548
H     0.11336  -6.87982   2.73463
H     1.32328  -6.35440   3.90184
C    -0.89507  -0.34291   4.13621
C     0.12893  -0.94107   4.86686
H     1.08519  -1.12259   4.39842
C    -0.07153  -1.28495   6.19020
H     0.72958  -1.74327   6.75025
C    -1.29372  -1.04318   6.79550
H    -1.44865  -1.31541   7.82858
C    -2.31693  -0.45277   6.07275
H    -3.27232  -0.26560   6.53948
C    -2.12108  -0.10009   4.75062
H    -2.92370   0.35035   4.18544
C    -1.43484   2.41800   3.18022
C    -2.57578   3.13866   2.83510
H    -3.07683   2.93222   1.90072
C    -3.07486   4.10146   3.69157
H    -3.96278   4.65126   3.41813
C    -2.43953   4.36031   4.89483
H    -2.83011   5.11440   5.56128
C    -1.30149   3.65101   5.24078
H    -0.80055   3.85219   6.17579
C    -0.80065   2.68209   4.39171
H     0.09377   2.13851   4.65816
C    -0.77897   2.86439   0.43290
C    -1.56182   2.99229  -0.71582
H    -2.06196   2.11529  -1.11260
C    -1.69762   4.22393  -1.32059
H    -2.30598   4.31508  -2.20805
C    -1.05055   5.34709  -0.81445
C    -0.26920   5.20670   0.32614
H     0.24885   6.06539   0.72787
C    -0.13663   3.98458   0.95469
H     0.49106   3.88322   1.82828
C    -1.16882   6.66893  -1.50678
H    -0.45298   6.71894  -2.32762
H    -0.95819   7.48833  -0.82374
H    -2.16434   6.80074  -1.92462
O     0.34591   0.77944  -1.41256
