64

Pt    0.00000   0.00000   0.00000
P    -0.03530  -0.28760   2.23769
P    -0.84020  -1.97838  -0.66151
Cl    0.89895   2.01847   0.65074
N    -0.54813  -1.81560   2.70967
C    -1.47186  -3.00953   0.73846
H    -1.64538  -4.02928   0.38312
H    -2.41206  -2.59654   1.10935
C    -0.44221  -3.01239   1.87192
H     0.56169  -3.08267   1.42553
C    -0.66487  -4.17684   2.84648
H    -0.10673  -5.06348   2.55249
H    -1.72675  -4.42594   2.87940
C    -0.22857  -3.61713   4.19677
H     0.85795  -3.64224   4.28585
H    -0.66172  -4.15663   5.03626
C    -0.71570  -2.17461   4.11344
H    -1.77426  -2.10702   4.39539
H    -0.14296  -1.50280   4.75590
C     2.37682  -0.93710   3.42553
C     3.54488  -0.68604   4.12095
C     3.79149   0.58301   4.61915
C     2.87293   1.59998   4.41358
C     1.70135   1.35332   3.72128
C     1.44150   0.07596   3.23656
H     2.18583  -1.92035   3.01556
H     4.26795  -1.47571   4.26660
H     4.70624   0.78196   5.15789
H     3.07489   2.59293   4.78718
H     0.99681   2.14922   3.53249
C    -1.46614   1.11373   4.25873
C    -2.53981   1.87489   4.68673
C    -3.51038   2.28223   3.78609
C    -3.41055   1.92765   2.45004
C    -2.33984   1.16681   2.02052
C    -1.35917   0.75871   2.91926
H    -0.70512   0.81031   4.96448
H    -2.61644   2.15640   5.72705
H    -4.34152   2.88285   4.12518
H    -4.16191   2.25232   1.74551
H    -2.23483   0.89782   0.96913
C     1.78598  -2.55853  -1.24456
C     2.83292  -3.33812  -1.70240
C     2.57777  -4.59311  -2.23078
C     1.27738  -5.06965  -2.30198
C     0.22799  -4.29469  -1.84425
C     0.48078  -3.03271  -1.31466
H     1.96366  -1.56270  -0.84149
H     3.84534  -2.96622  -1.65310
H     3.39280  -5.20150  -2.59399
H     1.08274  -6.04679  -2.71948
H    -0.78925  -4.65775  -1.90876
C    -3.48375  -1.81157  -1.50876
C    -4.48702  -1.78356  -2.45989
C    -4.18128  -1.97424  -3.79753
C    -2.86749  -2.18182  -4.18505
C    -1.85995  -2.21269  -3.23909
C    -2.16649  -2.04699  -1.89181
H    -3.72133  -1.63553  -0.46854
H    -5.50865  -1.60228  -2.15907
H    -4.96569  -1.94655  -4.53929
H    -2.62552  -2.30936  -5.22971
H    -0.83126  -2.34703  -3.53969
O    -0.01951   0.31573  -1.61939
