66

Pt    0.00000   0.00000   0.00000
P     0.03655  -2.28522  -0.46416
F    -4.39156   3.34473  -4.19627
O     1.45595   0.37776  -1.38926
C    -1.53242   0.66826  -1.18254
B     2.66161   0.08414  -0.90178
H     3.61114   0.83536  -2.42536
P     0.54419   2.12313   0.92584
F    -5.79894   1.90851  -3.43830
O     1.69139  -0.95140   0.94916
C    -2.72842   1.20508  -0.71536
H    -2.92067   1.27302   0.34488
F    -4.53036   1.39839  -5.09783
O     2.87995  -0.53237   0.30478
C    -3.70946   1.63515  -1.59333
H    -4.63480   2.04383  -1.21615
O     3.80563   0.40906  -1.59121
C    -3.50514   1.53139  -2.96169
C    -2.31896   0.99970  -3.44827
H    -2.16088   0.91842  -4.51326
C    -1.34929   0.56946  -2.55969
H    -0.42672   0.16636  -2.95203
C    -4.54928   2.03253  -3.91397
C    -1.39726  -2.89221  -1.47096
H    -1.42105  -2.29321  -2.38451
H    -1.22196  -3.93358  -1.75280
C    -2.72439  -2.74192  -0.74053
H    -2.79387  -3.43047   0.09738
H    -3.55257  -2.94299  -1.41696
H    -2.83277  -1.72803  -0.35788
C     1.47268  -2.94261  -1.40271
H     2.37809  -2.61458  -0.88880
H     1.41700  -4.03357  -1.34073
C     1.50891  -2.50513  -2.86282
H     0.66169  -2.90280  -3.41792
H     2.42384  -2.86407  -3.33086
H     1.49756  -1.42001  -2.92939
C    -0.03224  -3.26863   1.08744
H     0.82360  -2.95010   1.68628
H    -0.93855  -2.95591   1.61205
C    -0.03106  -4.78192   0.90596
H    -0.83743  -5.10959   0.25365
H    -0.17356  -5.25380   1.87623
H     0.91356  -5.13778   0.50251
C    -0.87073   3.06676   1.64086
H    -1.52649   3.32336   0.80496
H    -1.41720   2.36829   2.27979
C    -0.50156   4.32064   2.42250
H     0.11458   4.08326   3.28557
H    -1.40939   4.80083   2.78237
H     0.02943   5.03729   1.80040
C     1.77168   1.95641   2.28227
H     2.64736   1.46216   1.85138
H     2.06683   2.96296   2.59841
C     1.25001   1.13089   3.45274
H     0.33911   1.55501   3.87049
H     2.00234   1.08092   4.23745
H     1.03940   0.11709   3.11807
C     1.39643   3.31010  -0.19336
H     1.58300   4.23553   0.35934
H     2.36215   2.86502  -0.44693
C     0.60037   3.57761  -1.46415
H     0.46253   2.64573  -2.00838
H     1.13148   4.28019  -2.10330
H    -0.37970   3.99277  -1.23793
O    -1.05058  -0.27052   1.24322
