63

Ni    0.00000   0.00000   0.00000
P     0.45326  -1.45207  -1.51199
P    -0.53107   1.77517   1.07825
O     0.06960  -0.75241  -2.94204
O    -0.83491   2.91899  -0.05380
C    -0.38710   1.08093  -1.49615
C    -0.30473   0.57139  -2.79123
C    -0.58429   1.35804  -3.89744
H    -0.50853   0.93641  -4.88747
C    -0.95575   2.67896  -3.70565
H    -1.17644   3.29786  -4.56156
C    -1.04749   3.21829  -2.43278
H    -1.33707   4.24619  -2.28043
C    -0.75994   2.41512  -1.34053
C    -0.22431  -3.11384  -1.74067
C    -0.57950  -3.58403  -2.99964
H    -0.47358  -2.93975  -3.85937
C    -1.06985  -4.86980  -3.13843
H    -1.34215  -5.23825  -4.11695
C    -1.21192  -5.68465  -2.02653
H    -1.59445  -6.68840  -2.14041
C    -0.87224  -5.21101  -0.76919
H    -0.99371  -5.84293   0.09810
C    -0.38208  -3.92624  -0.62213
H    -0.12864  -3.54107   0.35559
C     2.30791  -1.68975  -1.66929
C     2.90376  -0.30219  -1.42388
H     3.99136  -0.34551  -1.38890
H     2.54477   0.09381  -0.46330
H     2.61105   0.39097  -2.21331
C     2.66246  -2.20625  -3.05864
H     2.22622  -3.18977  -3.22560
H     3.74405  -2.28856  -3.15676
H     2.29839  -1.52980  -3.82944
C     2.77344  -2.66382  -0.59249
H     2.38031  -3.66208  -0.77747
H     2.43928  -2.33702   0.39095
H     3.86113  -2.71830  -0.58554
C    -2.19417   1.61171   1.92770
C    -3.04459   0.78393   0.96249
H    -2.52740  -0.15477   0.72101
H    -3.21883   1.32953   0.03445
H    -4.00900   0.53803   1.40436
C    -2.00585   0.86542   3.24388
H    -1.49105  -0.07972   3.07920
H    -2.97500   0.65550   3.69416
H    -1.42230   1.45949   3.94530
C    -2.80610   2.98699   2.16674
H    -3.79460   2.87875   2.61107
H    -2.90786   3.53497   1.23213
H    -2.18605   3.57038   2.84557
C     0.48218   2.70145   2.25742
C     0.54598   4.08956   2.22418
H    -0.00238   4.63101   1.46802
C     1.31504   4.76346   3.15550
H     1.36276   5.84265   3.13312
C     2.02355   4.05790   4.11498
H     2.62270   4.58885   4.84023
C     1.97194   2.67321   4.13936
H     2.53314   2.12369   4.88058
C     1.20630   1.99218   3.21068
H     1.17097   0.91172   3.21043
O     0.33336  -0.94868   1.30819
