31

Pd    0.00000   0.00000   0.00000
N     1.46672   2.25752  -1.63178
C    -0.36213   0.76227  -3.37579
H    -0.75046   0.84549  -2.35693
H    -1.05917   0.38972  -4.10552
Br    1.44654  -1.45708  -1.17578
N     0.42524   2.78689   0.18532
C     0.87790   1.06477  -3.70896
H     1.21301   0.93100  -4.72772
N    -0.88578   1.33978   1.38307
C     1.96628   1.53745  -2.77808
H     2.51721   0.65334  -2.43297
H     2.65539   2.19309  -3.31529
C     1.49287   3.62513  -1.52312
H     1.96562   4.24565  -2.25653
C     0.85099   3.96599  -0.38459
H     0.65743   4.92784   0.04065
C     0.82050   1.72403  -0.58275
C    -0.38692   2.58197   1.29263
C    -0.66660   3.57208   2.22572
H    -0.23353   4.55410   2.12115
C    -1.49514   3.27659   3.29856
C    -2.00857   1.98051   3.37717
H    -2.65876   1.69966   4.18973
C    -1.68169   1.05118   2.41270
H    -2.07239   0.04132   2.44966
C    -1.82375   4.29513   4.33742
H    -1.39278   5.26243   4.09360
H    -1.44073   3.97480   5.30556
H    -2.90332   4.40123   4.43043
O    -0.95649  -1.26925   0.44343
