54

Pd    0.00000   0.00000   0.00000
S     1.78235   1.62922   0.11628
P     2.53113  -0.16273   0.46705
O    -1.53082  -1.29785  -0.15970
C    -1.78350  -1.89656  -1.27411
C    -3.13334  -2.23260  -1.54922
C    -3.49333  -2.93514  -2.66762
C    -2.52801  -3.36015  -3.58336
C    -1.20929  -3.07032  -3.34743
C    -0.80283  -2.33709  -2.21997
C     0.59893  -2.12158  -2.02937
N     1.08841  -1.27160  -1.19932
N     2.43790  -1.13887  -0.94030
C     3.37457  -2.15615  -1.36739
N     4.22003  -0.10823   0.67478
C     4.98841   0.66762  -0.28226
N     4.52727  -0.12941   2.00289
C     5.60552   0.36773   2.47468
C     5.94601   0.28317   3.87724
C     7.14688   0.85820   4.30793
C     7.53144   0.81080   5.62926
C     6.71468   0.17941   6.55874
C     5.52587  -0.39524   6.16178
C     5.12311  -0.35305   4.82786
O     3.95592  -0.93348   4.50248
C     1.93647  -1.16867   1.87295
C     2.41254  -2.46555   2.03873
C     1.88240  -3.25967   3.03984
C     0.88612  -2.76448   3.86519
C     0.42839  -1.46461   3.71193
C     0.94682  -0.65568   2.71442
H     3.80090  -0.80523   3.54700
H    -3.86820  -1.90547  -0.82980
H    -4.53462  -3.16176  -2.84469
H    -2.81857  -3.91219  -4.46365
H    -0.45142  -3.39700  -4.04700
H     1.26260  -2.73963  -2.63285
H     3.56310  -2.07101  -2.44092
H     2.99629  -3.15996  -1.14721
H     4.30904  -2.00024  -0.83333
H     5.97649   0.22295  -0.41705
H     5.09377   1.70933   0.03261
H     4.44527   0.64315  -1.22663
H     6.33771   0.88068   1.85043
H     7.77808   1.34863   3.58032
H     8.46108   1.26184   5.93978
H     7.00907   0.13805   7.59636
H     4.87735  -0.88817   6.86854
H     3.19687  -2.84079   1.39706
H     2.24484  -4.26813   3.17053
H     0.46865  -3.39409   4.63596
H    -0.33773  -1.07579   4.36409
H     0.61599   0.37997   2.62098
O    -1.00241   1.01051   0.83459
