69

Ru    0.00000   0.00000   0.00000
Cl   -1.44512   0.90458   1.65142
S     1.57815  -0.34119   1.51508
P     0.79430   2.03267  -0.57680
O     2.31192   0.81792   1.99982
O    -0.99515  -1.87113   0.41820
N    -1.59794   0.08676  -1.38415
N    -2.98553  -2.85522   0.26646
C     0.31058   2.37410  -2.30658
C    -0.97243   2.02612  -2.74946
C    -1.30819   2.23212  -4.07985
C    -0.39985   2.78020  -4.96968
C     0.86371   3.12988  -4.52995
C     1.21480   2.92499  -3.20733
C     0.14955   3.47007   0.32560
C     0.40317   3.50192   1.69604
C    -0.09213   4.53737   2.46420
C    -0.84395   5.54188   1.87352
C    -1.09540   5.51216   0.51263
C    -0.60370   4.47708  -0.26486
C     2.59059   2.30753  -0.58111
C     3.37740   1.32596  -1.18107
C     4.75343   1.45013  -1.19268
C     5.35571   2.55069  -0.60337
C     4.57628   3.52989  -0.01189
C     3.19702   3.41450   0.00077
C    -1.99626   1.43322  -1.81477
C    -2.70335  -0.65619  -0.77613
C    -2.15709  -1.84101   0.00878
C    -4.39464  -2.94316  -0.06337
C    -4.89149  -4.11915   0.77817
C    -3.65861  -5.01563   0.87664
C    -2.52850  -4.00602   1.03283
C     2.82359  -1.59619   1.09106
C     0.89437  -1.18064   2.97952
H    -1.24208  -0.43164  -2.20163
H    -2.29711   1.96429  -4.42689
H    -0.68052   2.93040  -6.00143
H     1.57848   3.55934  -5.21594
H     2.20313   3.19426  -2.86530
H     0.98897   2.70562   2.13711
H     0.09958   4.55974   3.52690
H    -1.23706   6.34803   2.47618
H    -1.68092   6.29565   0.05265
H    -0.80188   4.45530  -1.32825
H     2.89687   0.47165  -1.63931
H     5.35932   0.68545  -1.65775
H     6.43232   2.64324  -0.60339
H     5.04469   4.38857   0.44745
H     2.59523   4.18076   0.46703
H    -2.09739   2.04881  -0.90985
H    -2.96882   1.39343  -2.32767
H    -3.44043  -0.97390  -1.52599
H    -3.17798   0.00896  -0.04060
H    -4.51966  -3.15133  -1.13331
H    -4.91302  -2.01327   0.17950
H    -5.17786  -3.77023   1.77030
H    -5.74358  -4.61877   0.32329
H    -3.53164  -5.58363  -0.04541
H    -3.70940  -5.71017   1.71135
H    -1.57121  -4.35420   0.63987
H    -2.38745  -3.71468   2.07948
H     3.42829  -1.80244   1.96614
H     3.43372  -1.18350   0.29495
H     2.29950  -2.47832   0.74046
H     0.11005  -0.54088   3.37395
H     1.68211  -1.31419   3.71150
H     0.47864  -2.12652   2.64923
O     0.76854  -0.83755  -1.19597
