65

Pd    0.00000   0.00000   0.00000
Cl   -1.26127  -1.14566   1.56361
Cl    2.25310   2.11064   5.76587
Cl   -3.11677   5.91361   2.16975
P    -0.83528  -1.19059  -1.69606
N     0.83873   0.92458   1.67022
N    -1.11562   2.32285   0.36868
C    -2.25364   2.57047  -1.72342
H    -1.59836   1.72563  -1.95109
H    -2.04102   3.37977  -2.41981
H    -3.29424   2.27663  -1.85163
C     1.81682   0.26165   2.26439
C     2.27700   0.61949   3.53950
H     3.07340   0.05642   3.99915
C     1.69834   1.67701   4.19504
C     0.66102   2.40377   3.57462
C     0.02679   3.51927   4.18197
H     0.34226   3.80722   5.17260
C    -0.94270   4.21239   3.53787
H    -1.41430   5.06308   4.00446
C    -1.35243   3.84015   2.23230
C    -2.32694   4.54007   1.48814
C    -2.63762   4.14342   0.21236
H    -3.36348   4.68206  -0.37580
C    -1.99063   3.01650  -0.32393
C    -0.76809   2.71447   1.60226
C     0.26467   1.97575   2.28467
C     2.41403  -0.91608   1.56429
H     1.81993  -1.80333   1.80973
H     3.43671  -1.08601   1.89454
H     2.39894  -0.76422   0.47341
C    -0.03030  -2.81524  -1.84038
C     0.53873  -3.34840  -0.68776
H     0.46904  -2.78365   0.23761
C     1.15615  -4.58534  -0.72387
H     1.59584  -4.99763   0.17251
C     1.21152  -5.29516  -1.91246
H     1.69802  -6.25890  -1.94513
C     0.64450  -4.76898  -3.06221
H     0.68752  -5.32368  -3.98839
C     0.02341  -3.53318  -3.03196
H    -0.40920  -3.12147  -3.93362
C    -0.75821  -0.56372  -3.40293
C     0.48080  -0.51736  -4.03761
H     1.35834  -0.86853  -3.51426
C     0.58354  -0.01150  -5.31914
H     1.54690   0.02582  -5.80549
C    -0.54490   0.45314  -5.97662
H    -0.46225   0.85056  -6.97760
C    -1.77816   0.41019  -5.34873
H    -2.65926   0.77145  -5.85920
C    -1.88751  -0.09269  -4.06396
H    -2.85199  -0.12506  -3.57545
C    -2.60283  -1.57242  -1.49071
C    -3.19373  -2.71264  -2.02074
H    -2.59330  -3.43425  -2.55649
C    -4.54977  -2.92682  -1.84691
H    -5.00802  -3.81778  -2.25109
C    -5.31766  -2.00806  -1.15022
H    -6.37463  -2.18350  -1.01308
C    -4.72908  -0.87191  -0.61734
H    -5.32628  -0.16277  -0.06249
C    -3.37414  -0.65448  -0.78372
H    -2.88963   0.21179  -0.34275
O     1.06391   0.73226  -1.02684
