59

C    -1.96372  -1.99642   4.21518
H    -2.37286  -2.41360   5.11552
C    -1.60771  -0.72909   2.55761
C    -0.70892  -1.78152   2.45033
C    -0.25755  -3.78878   3.88523
H    -0.78700  -4.28100   4.69997
H     0.76059  -3.55680   4.20757
H    -0.20951  -4.46204   3.02714
C    -3.23895   0.77703   0.74742
C    -3.65849   2.00808   0.25196
H    -2.96858   2.84023   0.24428
C    -4.94269   2.14559  -0.23995
H    -5.27113   3.09948  -0.62522
C    -5.80593   1.06109  -0.24487
H    -6.80866   1.17121  -0.63106
C    -5.38387  -0.16721   0.23744
H    -6.05617  -1.01293   0.22639
C    -4.09959  -0.31434   0.72811
H    -3.76245  -1.27152   1.10176
C    -1.30085   2.06719   2.37442
C    -0.20445   2.90032   2.19856
H     0.49856   2.69457   1.40064
C    -0.03808   3.99680   3.02668
H     0.80943   4.65192   2.88900
C    -0.95977   4.25349   4.02790
H    -0.83060   5.11131   4.67176
C    -2.04835   3.41292   4.20872
H    -2.76203   3.61515   4.99404
C    -2.22367   2.31690   3.38570
H    -3.05837   1.64429   3.52227
C     0.27948  -3.42628   0.33500
C    -0.93779  -4.09563   0.42552
H    -1.76566  -3.63860   0.95277
C    -1.09166  -5.33377  -0.17081
H    -2.03663  -5.85225  -0.09777
C    -0.03813  -5.90214  -0.86873
H    -0.16162  -6.86794  -1.33572
C     1.16657  -5.22580  -0.98172
H     1.98014  -5.66187  -1.54193
C     1.32858  -3.98763  -0.38810
H     2.25211  -3.43714  -0.49530
C     2.05373  -1.77098   1.92998
C     2.72093  -2.91739   2.34373
H     2.32883  -3.89511   2.10025
C     3.90482  -2.79993   3.05129
H     4.42969  -3.69017   3.36652
C     4.41985  -1.54928   3.35114
H     5.34627  -1.46715   3.89983
C     3.75444  -0.40462   2.94028
H     4.16028   0.56984   3.16672
C     2.57412  -0.51623   2.23165
H     2.04592   0.36746   1.88151
Cl   -0.48739   1.75822  -1.01814
N    -0.95389  -2.58613   3.52957
N    -2.37941  -0.88859   3.66378
Ni    0.00000   0.00000   0.00000
P    -1.53701   0.60206   1.33178
P     0.46126  -1.77760   1.05630
O     1.25038  -0.59797  -0.89525
