47

Zr    0.00000   0.00000   0.00000
Cl   -0.29583  -1.20552  -1.94733
Si   -0.00744  -1.84161   2.36002
N     1.07611  -1.20479   1.17923
C    -0.18636   1.55600   2.76136
H     0.34265   1.05927   3.56359
C    -0.04709   2.91088   2.56489
H     0.62683   3.47450   3.19385
C    -0.76863   3.59178   1.57241
H    -0.64067   4.65805   1.46666
C    -1.62201   2.91550   0.72993
H    -2.17251   3.44329  -0.03885
C    -3.25574   0.62351  -1.04883
H    -3.43834   1.58557  -1.51233
C    -3.79860  -0.52647  -1.57480
H    -4.39746  -0.47870  -2.47151
C    -3.59268  -1.76826  -0.95439
H    -4.04720  -2.64635  -1.38893
C    -2.83233  -1.89218   0.18365
H    -2.71038  -2.85484   0.65755
C    -1.36565  -0.58333   1.87967
C    -1.07327   0.82456   1.94266
C    -1.76374   1.52914   0.87794
C    -2.47255   0.53448   0.11117
C    -2.23237  -0.74742   0.74569
C    -0.46784  -3.66486   1.99271
H     0.30159  -4.33228   2.36669
H    -1.39966  -3.95249   2.46665
H    -0.55730  -3.83118   0.92215
C     0.46730  -1.73519   4.21831
H     0.86986  -2.68227   4.56141
H     1.21726  -0.97467   4.40981
H    -0.39671  -1.50779   4.83409
C     2.51217  -1.22883   1.00787
C     2.80591  -1.27918  -0.50920
H     2.28295  -2.13300  -0.95088
H     2.46337  -0.35441  -0.99807
H     3.87449  -1.39020  -0.68841
C     3.09039   0.07614   1.59785
H     2.95908   0.07918   2.67856
H     4.15092   0.16720   1.37374
H     2.55587   0.93776   1.17551
C     3.14842  -2.44560   1.68931
H     2.72967  -3.35663   1.27025
H     4.22510  -2.44668   1.54015
H     2.93902  -2.42592   2.75474
O     0.73591   1.34491  -0.61004
