48

C     0.25443   0.85546  -1.78625
C     0.51066   2.17540  -2.13691
H     0.59602   2.92630  -1.36444
C     0.65959   2.54572  -3.46484
H     0.85958   3.57800  -3.71448
C     0.55486   1.60295  -4.47623
H     0.67286   1.90006  -5.50829
C     0.30030   0.28204  -4.16409
H     0.22033  -0.44979  -4.95518
C     0.15017  -0.09999  -2.83251
C    -0.11331  -1.46622  -2.39921
C    -0.27035  -2.59859  -3.19212
H    -0.20306  -2.52477  -4.26495
C    -0.51595  -3.82198  -2.58732
H    -0.64221  -4.70836  -3.19012
C    -0.59877  -3.90857  -1.20647
H    -0.78931  -4.85776  -0.73367
C    -0.43426  -2.75229  -0.44746
C    -0.48445  -2.68109   1.01581
C    -0.67036  -3.79061   1.84087
H    -0.79893  -4.77311   1.41434
C    -0.68600  -3.62994   3.21450
C    -0.51523  -2.34083   3.74090
C    -0.34522  -1.28810   2.86064
H    -0.21408  -0.27236   3.21233
C    -0.88537  -4.77604   4.16632
H    -0.10410  -5.52440   4.00184
H    -1.84380  -5.26224   3.96567
C    -0.82246  -4.27137   5.60559
H    -0.93838  -5.08530   6.32176
C     0.40252  -3.35251   5.73959
H     0.73037  -3.20935   6.76436
H     1.26361  -3.59427   5.11831
C    -0.50843  -2.21872   5.22546
H    -0.34383  -1.20051   5.57226
C    -1.71282  -3.01762   5.80075
C    -3.04493  -2.93746   5.06695
H    -2.94520  -3.06509   3.99327
H    -3.50124  -1.96565   5.24484
H    -3.71922  -3.70475   5.44333
C    -1.95949  -2.70866   7.27370
H    -2.36821  -1.70592   7.38046
H    -1.05063  -2.76912   7.86420
H    -2.67832  -3.41552   7.68398
N    -0.20237  -1.57604  -1.05628
N    -0.32740  -1.45053   1.54505
Pt    0.00000   0.00000   0.00000
O     0.15484   1.32063   0.97697
