50

Ir    0.00000   0.00000   0.00000
N    -0.33595   0.35991  -1.98599
C    -1.13056  -1.59473  -0.51833
C    -1.55831  -2.63397   0.29709
H    -1.27616  -2.66005   1.33871
C    -2.36210  -3.64426  -0.20528
H    -2.67502  -4.44887   0.44505
C    -2.78260  -3.63254  -1.53030
H    -3.41707  -4.42412  -1.90080
C    -2.40172  -2.60124  -2.35988
H    -2.73734  -2.56162  -3.38635
C    -1.57964  -1.58844  -1.86009
C    -1.12357  -0.45767  -2.60404
H    -1.42117  -0.28807  -3.63605
C     0.13501   1.54435  -2.66271
H    -0.09172   1.48047  -3.73486
H     1.22070   1.60542  -2.54360
C    -0.50487   2.80891  -2.08066
H    -0.31977   2.83941  -1.00669
H    -1.58549   2.75308  -2.21842
C     0.04687   4.06210  -2.74508
H     1.12408   4.13248  -2.60542
H    -0.41378   4.94803  -2.31622
H    -0.15739   4.05372  -3.81387
C     1.16211   1.26401   1.60483
C     2.02183   1.13777   0.51478
C     2.19643  -0.27530   0.24587
C     1.53381  -1.00859   1.28161
C     0.79123  -0.06861   2.05314
C     0.71896   2.51860   2.28132
H     1.04926   2.51999   3.32085
H    -0.36927   2.58747   2.27413
H     1.12543   3.39729   1.78632
C     2.76023   2.24437  -0.16996
H     2.14081   3.13342  -0.27405
H     3.09998   1.94071  -1.15811
H     3.64238   2.51558   0.41424
C     3.20954  -0.85141  -0.69348
H     4.20066  -0.82346  -0.23538
H     3.25468  -0.29079  -1.62559
H     2.97208  -1.88616  -0.92911
C     1.72604  -2.46703   1.55986
H     1.59054  -3.06784   0.66254
H     1.02671  -2.81686   2.31369
H     2.73871  -2.63294   1.93180
C     0.06171  -0.32475   3.33565
H    -0.23796  -1.36643   3.41935
H    -0.83235   0.29292   3.39212
H     0.70162  -0.08045   4.18613
O    -1.43995   0.73059   0.33951
