50

Rh    0.00000   0.00000   0.00000
N    -0.31112   0.31767   1.99227
C    -1.10059  -1.60308   0.46211
C    -1.55632  -2.59247  -0.39859
H    -1.32264  -2.55486  -1.45365
C    -2.33533  -3.63263   0.08156
H    -2.67314  -4.40220  -0.59839
C    -2.70146  -3.69446   1.42135
H    -3.31622  -4.50949   1.77408
C    -2.29940  -2.70234   2.28804
H    -2.60041  -2.71567   3.32611
C    -1.50335  -1.65801   1.81163
C    -1.05923  -0.54302   2.58725
H    -1.35306  -0.41759   3.62856
C     0.12074   1.50220   2.69126
H     1.21495   1.55313   2.65154
H    -0.18475   1.45117   3.74560
C    -0.46304   2.76274   2.04450
H    -1.55004   2.73487   2.13562
H    -0.22714   2.75133   0.97677
C     0.08726   4.02495   2.69224
H    -0.15591   4.05098   3.75275
H    -0.34192   4.90591   2.22223
H     1.16984   4.07293   2.58970
C     1.11609   1.24620  -1.59570
C     1.97525   1.14768  -0.49747
C     2.17149  -0.26372  -0.21418
C     1.52664  -1.01916  -1.24142
C     0.76556  -0.10067  -2.02492
C     0.67296   2.48190  -2.31091
H     1.04523   3.37739  -1.81954
H    -0.41528   2.53072  -2.34624
H     1.04442   2.46621  -3.33655
C     2.73790   2.26451   0.14799
H     3.66701   2.43109  -0.40197
H     3.00137   2.02506   1.17601
H     2.17097   3.19276   0.14265
C     3.18695  -0.81053   0.74188
H     2.95347  -1.83843   1.01016
H     3.23499  -0.22011   1.65494
H     4.17512  -0.79393   0.27678
C     1.73815  -2.48044  -1.49433
H     2.74684  -2.63142  -1.88387
H     1.03135  -2.86075  -2.22626
H     1.63482  -3.06577  -0.58240
C     0.04360  -0.38148  -3.30830
H     0.66247  -0.07464  -4.15399
H    -0.89081   0.17537  -3.34873
H    -0.18151  -1.43979  -3.41477
O    -1.46602   0.68272  -0.32739
