33

Zr    0.00000   0.00000   0.00000
S    -2.31751   1.34170  -0.38897
N    -0.07604   1.43927  -1.65608
C    -1.30622   1.89108  -1.60927
C     0.86696   1.93723  -2.56279
C     1.94579   1.11343  -2.90306
C     2.92348   1.56961  -3.76592
C     2.85333   2.84948  -4.29445
C     1.79774   3.67562  -3.94738
C     0.81090   3.23129  -3.08718
C     1.80739  -0.50472   1.79446
C     0.86739   0.41994   2.29174
C     0.90189   1.54519   1.43319
C     1.98591   1.40606   0.53551
C     2.50790   0.10512   0.71940
C    -0.38755  -3.70238  -1.44625
C     0.51412  -2.87982  -0.78559
C     0.93258  -1.66606  -1.18546
C    -0.40915  -1.54563  -1.71857
C    -1.07921  -2.69135  -2.15712
H     1.99648   0.11072  -2.48844
H     3.74811   0.92320  -4.02624
H     3.62122   3.20377  -4.96460
H     1.74393   4.67911  -4.34242
H     0.01264   3.89907  -2.79929
H    -0.65238  -4.72361  -1.25867
H     0.24450   0.29061   3.16853
H    -1.70103   2.59908  -2.34074
H     2.01652  -1.48213   2.21312
H     3.35806  -0.31875   0.19895
H    -2.03212  -2.75482  -2.65232
H     2.37241   2.15925  -0.13900
O    -0.95702  -1.03085   0.86253
