69

Pd    0.00000   0.00000   0.00000
P    -1.68057   1.51018   0.06550
P     1.30533  -1.83351  -0.18489
Si   -1.14722  -0.89703  -1.76196
C    -3.12526   0.89083  -0.86754
C    -4.37168   1.50505  -0.82741
H    -4.51920   2.41592  -0.26512
C    -5.44110   0.95574  -1.51233
H    -6.40785   1.43707  -1.47608
C    -5.27134  -0.20984  -2.24085
H    -6.10755  -0.64156  -2.77187
C    -4.02723  -0.81420  -2.29192
H    -3.89423  -1.71483  -2.87224
C    -2.94801  -0.28159  -1.60744
C    -0.70174  -0.37838  -3.58396
H    -1.39503   0.36986  -3.95598
H    -0.76742  -1.24399  -4.23610
H     0.30420   0.02279  -3.66680
C    -0.70968  -2.75610  -1.81662
C    -1.38566  -3.71278  -2.55499
H    -2.33841  -3.46574  -2.99940
C    -0.85413  -4.97819  -2.73577
H    -1.39792  -5.71904  -3.30431
C     0.39091  -5.28587  -2.21206
H     0.82352  -6.26175  -2.38005
C     1.08126  -4.34221  -1.47181
H     2.05964  -4.58301  -1.08181
C     0.52285  -3.08941  -1.24919
C    -1.13031   3.11249  -0.69602
H    -0.55908   3.60747   0.10062
C    -0.15589   2.75245  -1.81834
H     0.60846   2.05383  -1.43370
H     0.34966   3.64247  -2.19051
H    -0.68359   2.27876  -2.64524
C    -2.25155   4.02469  -1.17327
H    -2.84060   3.53758  -1.94878
H    -1.83293   4.94153  -1.58646
H    -2.91196   4.29527  -0.35148
C    -2.40860   1.89990   1.73050
H    -3.43327   2.27094   1.60567
C    -1.57207   2.90901   2.50798
H    -0.52452   2.60681   2.50194
H    -1.90800   2.94509   3.54336
H    -1.65820   3.91014   2.08948
C    -2.42961   0.54949   2.44765
H    -2.95397  -0.19930   1.84632
H    -2.91947   0.62361   3.41718
H    -1.39563   0.22525   2.60751
C     3.03721  -1.66334  -0.81404
H     3.43928  -2.64445  -1.09537
C     2.89463  -0.78030  -2.05392
H     2.29542  -1.28313  -2.81443
H     3.86667  -0.53445  -2.47824
H     2.39004   0.15395  -1.77066
C     3.91592  -0.99614   0.23809
H     3.41649  -0.11018   0.63278
H     4.86429  -0.68888  -0.20035
H     4.12430  -1.66889   1.06747
C     1.33935  -2.59777   1.50557
H     1.83568  -1.83503   2.12367
C     2.05576  -3.93283   1.65584
H     1.50157  -4.72584   1.15775
H     2.13023  -4.18740   2.71238
H     3.06356  -3.89413   1.24625
C    -0.12826  -2.68762   1.93021
H    -0.62211  -1.71632   1.75586
H    -0.21343  -2.93624   2.98668
H    -0.64976  -3.44938   1.34833
O     0.90761   0.68481   1.19573
