45

Re    0.00000   0.00000   0.00000
Cl   -1.09093   2.33646   2.97378
Cl    2.80578   3.08855  -0.65846
Cl    0.91904  -3.83371   0.03558
Cl    3.69376   0.29513  -2.01305
O     0.65703   1.48261  -2.62464
O    -2.65413   1.57512   0.18371
O    -1.41560  -2.21053  -1.63340
N     1.17360   1.48459   1.23650
N     1.99758  -1.05727   0.01712
C     0.75810   2.82532   1.07223
C    -0.33710   3.33002   1.77882
C    -0.80984   4.60893   1.53474
H    -1.66414   4.96903   2.08423
C    -0.18301   5.40622   0.59407
H    -0.55661   6.39828   0.39733
C     0.92878   4.94431  -0.08825
H     1.43576   5.56621  -0.80822
C     1.39804   3.66699   0.16182
C     2.14790   1.20340   2.00851
C     2.59873  -0.21265   2.20017
H     1.76648  -0.73088   2.71870
H     3.47654  -0.23745   2.84448
C     2.86138  -0.99967   0.95232
C     2.88853   2.21707   2.81646
H     2.39584   3.18618   2.80016
H     3.89563   2.33027   2.41380
H     2.97439   1.87542   3.84682
C     4.16442  -1.72778   0.92851
H     4.29776  -2.27212   1.86249
H     4.97745  -1.00618   0.84018
H     4.22396  -2.42489   0.09611
C     2.25725  -1.81325  -1.14848
C     1.74891  -3.10710  -1.29363
C     1.91105  -3.80339  -2.48003
H     1.49795  -4.79470  -2.57024
C     2.59859  -3.22236  -3.53033
H     2.71665  -3.76060  -4.45707
C     3.14729  -1.95904  -3.39623
H     3.70199  -1.50672  -4.20238
C     2.98449  -1.26956  -2.20778
C     0.47150   0.94022  -1.63040
C    -1.67183   0.98873   0.10993
C    -0.89640  -1.38534  -1.03027
O    -0.36941  -0.79131   1.39995
