45

Zr    0.00000   0.00000   0.00000
Cl   -2.11602   0.78294  -0.55959
C     0.73575  -0.46158   2.25692
C     1.06680  -1.64149   1.53879
C    -0.10699  -2.30323   1.13179
C    -2.61004  -1.73863   1.49237
C    -3.45172  -0.82294   2.06925
C    -2.95118   0.29229   2.76606
C    -1.60399   0.52260   2.88504
C    -0.69595  -0.37973   2.28897
C    -1.21824  -1.54040   1.58634
C     1.66912   0.72422   2.45421
C     1.69687   1.32420   1.04825
C     2.28878   0.74467  -0.12126
C     1.67505   1.33110  -1.26477
C     0.68631   2.24664  -0.82118
C     0.68652   2.23706   0.60170
C     3.43409  -0.22436  -0.26395
C     2.10017   1.11184  -2.68759
C    -0.14476   3.13223  -1.70460
C    -0.17575   3.15251   1.42949
C     3.02087   0.36688   3.07741
H     4.19943   0.20996  -0.90994
H     3.90008  -0.45394   0.68836
H     3.09317  -1.15354  -0.73462
H     2.37154   0.07033  -2.85890
H     2.96440   1.73633  -2.92629
H     1.29423   1.37211  -3.37235
H    -0.99971   3.52836  -1.16038
H     0.45029   3.96856  -2.07866
H    -0.52133   2.57163  -2.56246
H     0.12414   3.14784   2.47529
H    -1.22959   2.86482   1.35885
H    -0.08152   4.17669   1.06525
H     2.90049   0.22356   4.14915
H     3.42800  -0.55336   2.67057
H     3.73404   1.17145   2.91445
H     2.06258  -2.05033   1.41830
H    -0.15669  -3.27939   0.66611
H    -2.99763  -2.61090   0.98161
H    -4.52064  -0.95796   2.00350
H    -3.65201   0.97504   3.22320
H    -1.24404   1.35550   3.47502
H     1.18870   1.44784   3.12397
O     0.10523  -0.98363  -1.32057
