57

C    -1.05860  -2.98329  -0.15964
H    -0.73378  -3.85068   0.43009
C    -2.41444  -3.33573  -0.75027
C    -2.62880  -4.01383  -1.88256
H    -1.80932  -4.33820  -2.50639
C    -4.01195  -4.34084  -2.34919
H    -3.99900  -5.26983  -2.92218
H    -4.36671  -3.54971  -3.01882
C    -4.95366  -4.46615  -1.15473
H    -4.63095  -5.30601  -0.53524
H    -5.97152  -4.66544  -1.49302
C    -4.92275  -3.18698  -0.32334
H    -5.37396  -2.36758  -0.89312
H    -5.50904  -3.31743   0.58843
C    -3.51914  -2.80009   0.02388
C    -3.13956  -1.89994   0.95428
C    -3.76907  -0.93858   1.82253
C    -5.09977  -0.70720   2.14992
H    -5.88834  -1.32952   1.75881
C    -5.37911   0.35948   2.99027
H    -6.40108   0.57633   3.26559
C    -4.34310   1.14942   3.46631
H    -4.53946   1.98963   4.11268
C    -3.04000   0.84137   3.09314
H    -2.18823   1.42334   3.41508
C    -0.04008  -2.69110  -1.21816
C     0.56150  -3.72944  -1.92315
H     0.38395  -4.75043  -1.61965
C     1.38626  -3.44591  -2.99820
H     1.86305  -4.24174  -3.55041
C     1.56932  -2.11944  -3.35250
H     2.17257  -1.84368  -4.20197
C     0.98802  -1.13578  -2.57173
H     1.15694  -0.08592  -2.78020
C    -0.56205  -2.00349   2.55322
H    -0.65709  -1.12271   3.20015
C    -1.18115  -3.21278   3.24534
H    -2.23737  -3.02224   3.45123
H    -1.12026  -4.09476   2.60206
C    -0.43535  -3.49012   4.54963
H    -0.85861  -4.37037   5.03868
H    -0.56160  -2.63898   5.22173
C     1.05267  -3.70587   4.28537
H     1.57134  -3.88946   5.22805
H     1.18503  -4.58930   3.65545
C     1.65932  -2.48995   3.58854
H     2.72009  -2.66097   3.39621
H     1.57189  -1.61608   4.23624
C     0.93005  -2.21699   2.27630
H     1.34670  -1.31105   1.79178
H     1.07920  -3.06621   1.60164
N     0.22875  -1.41064  -1.51077
N    -2.77677  -0.17518   2.30077
P    -1.37435  -1.49507   0.97100
Cl    1.65317   1.30415  -0.84028
Pd    0.00000   0.00000   0.00000
O    -0.08634   1.04215   1.27631
