54

Zr    0.00000   0.00000   0.00000
Cl    2.11929  -0.81966   0.51196
Si   -2.22795   2.31694   0.88151
C    -0.70402   2.31861  -0.24744
C    -0.67134   1.76544  -1.55881
C     0.67519   1.53373  -1.91760
C     1.48671   1.90247  -0.82533
C     0.64416   2.35224   0.21391
C    -1.92993   0.51462   1.39706
C    -2.30322  -0.64896   0.66271
C    -1.50960  -1.74335   1.06781
C    -0.60181  -1.29155   2.06268
C    -0.83990   0.11745   2.24997
C    -0.02931   0.84104   3.16664
C     0.94254   0.19095   3.86432
C     0.40676  -1.97432   2.81461
C     0.66822  -3.34596   2.67659
C     1.66189  -3.94487   3.41067
C     2.42550  -3.19432   4.30714
C     2.19073  -1.85087   4.45722
C     1.18474  -1.20722   3.71958
C    -3.37851  -0.74646  -0.38185
C    -2.08977   3.55544   2.32982
C    -3.86745   2.59296  -0.06867
C    -4.19675   4.05874  -0.34270
C    -3.13952   4.75121  -1.19546
C    -3.50900   6.20078  -1.48469
H    -1.51903   1.67451  -2.22922
H     1.02693   1.21337  -2.89120
H     2.56979   1.91726  -0.81620
H     0.98678   2.79793   1.14121
H    -1.64840  -2.76593   0.73785
H    -0.21494   1.89169   3.34044
H     1.56022   0.73407   4.56543
H     0.08604  -3.92603   1.97491
H     1.86108  -4.99965   3.29199
H     3.20726  -3.67566   4.87603
H     2.78680  -1.26630   5.14352
H    -3.03103  -0.33963  -1.33725
H    -4.27254  -0.20844  -0.07452
H    -3.64083  -1.79025  -0.54556
H    -1.06591   3.86681   2.50816
H    -2.47888   3.13131   3.24967
H    -2.66066   4.45209   2.11849
H    -3.84557   2.06529  -1.02168
H    -4.68607   2.16436   0.50979
H    -5.15970   4.11636  -0.85768
H    -4.30657   4.59259   0.60259
H    -3.02596   4.21134  -2.13732
H    -2.17857   4.71753  -0.67867
H    -2.74172   6.67755  -2.08927
H    -3.61268   6.76091  -0.55796
H    -4.45283   6.25580  -2.02280
O    -0.20431  -1.04415  -1.26116
