37

Zr    0.00000   0.00000   0.00000
Cl    0.13381  -2.20931  -0.79286
Cl    1.19322  -0.60566   1.99400
O     0.88937   2.08469   0.54289
O     2.32213  -0.03524  -0.58371
C    -2.01771  -0.75569   1.12798
C    -1.73058   0.51178   1.69537
C    -1.94124   1.49817   0.70025
C    -2.37231   0.84696  -0.47237
C    -2.41562  -0.53939  -0.21764
C    -2.00388  -2.07478   1.85188
C    -3.30453  -2.38984   2.53977
C    -4.38104  -1.62767   2.52392
C     1.03253   2.54787   1.88838
C     2.07270   2.29518  -0.22908
C     3.01849   1.10282  -0.09589
C     3.14377  -1.19981  -0.54228
H    -1.52138   0.68171   2.74538
H    -1.91510   2.57177   0.84260
H    -2.68851   1.33259  -1.38546
H    -2.77964  -1.30181  -0.89741
H    -1.20635  -2.07888   2.60691
H    -1.78249  -2.88426   1.14395
H    -3.30628  -3.33006   3.07651
H    -4.40415  -0.68933   1.99503
H    -5.28414  -1.91221   3.03641
H     1.31719   3.60561   1.88729
H     0.06319   2.43629   2.37228
H     1.77080   1.95888   2.44018
H     2.56827   3.22367   0.07675
H     1.73906   2.36830  -1.27301
H     3.30678   0.93669   0.95498
H     3.92223   1.27443  -0.69894
H     2.56789  -2.01092  -0.98984
H     4.05869  -1.03234  -1.12057
H     3.39664  -1.45568   0.49326
O     0.09062   0.58456  -1.54032
