43

Ru    0.00000   0.00000   0.00000
Cl   -0.00000  -0.00000  -2.32068
S     2.24785   0.41904  -0.00003
O     2.93938  -0.87120  -0.00004
C     2.96052   1.34527  -1.38495
H     4.03819   1.25053  -1.32679
H     2.58110   0.89435  -2.29682
H     2.62909   2.37217  -1.30029
S    -2.24785  -0.41904  -0.00003
S    -0.41904   2.24785  -0.00002
S     0.41904  -2.24785  -0.00002
C     2.96054   1.34525   1.38489
O    -2.93938   0.87120  -0.00004
C    -2.96054  -1.34525   1.38489
C    -2.96052  -1.34527  -1.38495
O     0.87120   2.93938  -0.00000
C    -1.34525   2.96054  -1.38494
C    -1.34526   2.96052   1.38490
O    -0.87120  -2.93938  -0.00000
C     1.34526  -2.96052   1.38490
C     1.34525  -2.96054  -1.38494
H     4.03820   1.25050   1.32671
H     2.58113   0.89432   2.29676
H     2.62910   2.37215   1.30025
H    -4.03820  -1.25050   1.32671
H    -2.58113  -0.89432   2.29676
H    -2.62910  -2.37215   1.30025
H    -4.03819  -1.25053  -1.32679
H    -2.58110  -0.89435  -2.29682
H    -2.62909  -2.37217  -1.30029
H    -1.25051   4.03820  -1.32676
H    -0.89433   2.58113  -2.29681
H    -2.37215   2.62910  -1.30030
H    -1.25052   4.03819   1.32673
H    -0.89435   2.58110   2.29677
H    -2.37216   2.62909   1.30025
H     1.25052  -4.03819   1.32673
H     0.89435  -2.58110   2.29677
H     2.37216  -2.62909   1.30025
H     1.25051  -4.03820  -1.32676
H     0.89433  -2.58113  -2.29681
H     2.37215  -2.62910  -1.30030
O    -0.00000  -0.00000   1.65000
