57

Ti    0.00000   0.00000   0.00000
Cl    0.97985  -1.90546  -0.66065
N     1.04854   0.77429   1.44422
N     1.77743   0.86765  -0.63325
N    -1.07843  -0.84314   1.38183
N    -1.76327  -0.83550  -0.71285
C    -1.56183   0.53176   5.62142
H    -2.56238   0.94851   5.72476
H    -1.06926   0.61237   6.58992
H    -1.64433  -0.51907   5.35946
C    -0.80071   1.29748   4.57866
C    -0.82432   2.68768   4.62377
H    -1.36637   3.17857   5.41889
C    -0.17583   3.44107   3.66351
H    -0.20291   4.51967   3.71075
C     0.47798   2.81728   2.61937
H     0.93055   3.39987   1.82845
C     0.51482   1.42227   2.54905
C    -0.09660   0.65444   3.55999
C     0.01920  -0.82572   3.52581
C    -0.56836  -1.54385   2.46545
C    -0.53127  -2.94062   2.46889
H    -0.96488  -3.48427   1.64052
C     0.09927  -3.61412   3.49631
H     0.12670  -4.69374   3.49187
C     0.72437  -2.90799   4.50668
H     1.24840  -3.43675   5.28952
C     0.70024  -1.51723   4.52829
C     1.43576  -0.80283   5.62447
H     2.43370  -1.22475   5.73190
H     0.91994  -0.92935   6.57582
H     1.52403   0.25927   5.41519
C     2.00010   1.28533   0.63496
C     3.12587   2.06904   0.94471
H     3.29937   2.38965   1.95993
C     3.99173   2.37951  -0.08011
H     4.87187   2.97276   0.12173
C     3.74291   1.93449  -1.37829
H     4.41789   2.18156  -2.18151
C     2.61140   1.17117  -1.62407
C     2.22429   0.65486  -2.97324
H     1.25723   1.08038  -3.25275
H     2.11288  -0.43075  -2.92103
H     2.96483   0.91138  -3.72528
C    -2.01181  -1.31463   0.52857
C    -3.14236  -2.11337   0.77622
H    -3.33664  -2.48258   1.77095
C    -3.98568  -2.37496  -0.28051
H    -4.86870  -2.97810  -0.12626
C    -3.71020  -1.86761  -1.55011
H    -4.36740  -2.07643  -2.37854
C    -2.57543  -1.09193  -1.73464
C    -2.16065  -0.51196  -3.04929
H    -2.03121   0.56720  -2.93808
H    -2.89482  -0.71540  -3.82352
H    -1.19758  -0.93981  -3.33857
O    -0.71135   1.42459  -0.43246
