55

Zn    0.00000   0.00000   0.00000
B    -1.28373  -1.64023  -2.03050
B     1.23444  -1.85658  -1.86672
N    -0.08508  -1.76795  -1.04295
C    -0.24477  -2.86663  -0.06731
H     0.60328  -2.89437   0.61836
H    -0.30788  -3.83907  -0.56487
H    -1.15567  -2.72853   0.51699
N    -2.09839  -0.35291  -1.75203
N    -1.62749   0.63555  -0.98923
C    -2.52406   1.61524  -0.99467
H    -2.35860   2.51292  -0.43089
C    -3.60428   1.25586  -1.79250
H    -4.48615   1.82640  -1.99696
C    -3.28720  -0.00751  -2.25402
H    -3.83977  -0.67444  -2.88491
N     2.20075  -0.70246  -1.49723
N     1.80028   0.36975  -0.81125
C     2.82804   1.20713  -0.73048
H     2.73708   2.13824  -0.20540
C     3.92457   0.66665  -1.39227
H     4.89836   1.09558  -1.50526
C     3.47606  -0.55177  -1.86517
H     3.98946  -1.31395  -2.41615
N    -0.56545  -1.39649  -3.37829
N     0.74487  -1.52839  -3.29663
C     1.28510  -1.32698  -4.49381
H     2.34194  -1.39205  -4.65415
C     0.25937  -1.05102  -5.38708
H     0.34551  -0.84123  -6.43295
C    -0.90312  -1.10823  -4.63090
H    -1.92378  -0.96535  -4.92202
C    -2.27622  -2.90493  -2.11316
C    -2.10808  -3.91149  -3.06096
H    -1.29807  -3.84329  -3.77465
C    -2.95526  -5.00396  -3.11869
H    -2.79830  -5.76796  -3.86690
C    -4.00108  -5.11810  -2.22017
H    -4.66394  -5.97002  -2.26141
C    -4.18935  -4.13187  -1.26746
H    -5.00244  -4.21108  -0.56033
C    -3.33675  -3.04393  -1.21846
H    -3.50195  -2.28274  -0.46753
C     2.01214  -3.26294  -1.80449
C     1.78613  -4.27030  -2.73918
H     1.08552  -4.10222  -3.54590
C     2.43674  -5.48915  -2.66441
H     2.23858  -6.25141  -3.40452
C     3.33743  -5.73256  -1.64268
H     3.84563  -6.68367  -1.57974
C     3.57979  -4.74770  -0.70086
H     4.28035  -4.92701   0.10196
C     2.92359  -3.53304  -0.78428
H     3.12596  -2.77575  -0.03848
O    -0.06119   0.25945   1.62832
