36

Zn    0.00000   0.00000   0.00000
Cl    0.01117  -1.79109  -1.30380
N     0.67816  -0.97587   1.85950
N    -1.03564   0.96079   1.59151
N    -1.70072   1.05230  -0.92522
C     1.43617  -2.05362   1.92176
H     1.58892  -2.57317   0.98573
C     1.99816  -2.50040   3.10956
H     2.61785  -3.38237   3.12232
C     1.73897  -1.78733   4.26828
H     2.15098  -2.10421   5.21504
C     0.93846  -0.65854   4.19970
H     0.71033  -0.10073   5.09388
C     0.42526  -0.27235   2.96448
C    -0.41103   0.92177   2.75953
C    -0.50408   1.96610   3.67296
H     0.03555   1.92364   4.60278
C    -1.26786   3.07798   3.33008
C    -1.89568   3.10930   2.08256
H    -2.44834   3.98786   1.79360
C    -1.74137   2.02718   1.23052
C    -2.26055   1.97884  -0.14528
C    -3.24811   2.83271  -0.62860
H    -3.70896   3.56344   0.01630
C    -3.64021   2.71783  -1.95241
H    -4.40184   3.37096  -2.35197
C    -3.04410   1.75490  -2.75031
H    -3.32118   1.63627  -3.78535
C    -2.07564   0.93737  -2.18516
H    -1.58299   0.15906  -2.75163
S    -1.49075   4.47887   4.35501
C    -0.42776   4.15120   5.78920
H    -0.51132   5.03147   6.41910
H    -0.78544   3.27958   6.32939
H     0.60093   4.02862   5.46383
O     1.10217   1.22789   0.00057
