55

Zr    0.00000   0.00000   0.00000
Cl   -1.22405  -0.56330  -1.89770
C    -0.42258   1.30947   3.14101
C    -0.81298  -0.18238   3.29933
C    -0.33818  -1.00546   2.12864
C     1.02943  -1.32874   1.83337
C     1.06393  -2.27170   0.73770
C    -0.29733  -2.54654   0.36029
C    -1.15741  -1.77218   1.23191
C    -0.39389   1.70484   1.68802
C     0.72336   2.14801   0.92833
C     0.29698   2.43184  -0.39436
C    -1.10685   2.20724  -0.47240
C    -1.54213   1.72801   0.82410
C    -2.90632   1.42025   1.03534
C    -3.76759   1.56262  -0.01843
C    -5.23830   1.26524  -0.05796
C    -5.72276   2.02750  -1.29914
C    -4.50165   2.08000  -2.22792
C    -3.33929   2.03755  -1.28093
C    -2.03699   2.37782  -1.52078
C     2.14079   2.33405   1.39650
C     2.24582  -0.92002   2.41886
C     3.42711  -1.42040   1.92453
C     3.45191  -2.33468   0.86220
C     2.28633  -2.76873   0.27271
C    -0.84835  -3.40279  -0.60001
C    -2.21702  -3.48189  -0.71752
C    -3.05718  -2.72547   0.11209
C    -2.55648  -1.88451   1.07649
H    -1.13861   1.93229   3.68683
H     0.56088   1.48011   3.58377
H    -0.38801  -0.57099   4.23116
H    -1.89866  -0.27394   3.37557
H     0.91425   2.86685  -1.17189
H    -3.26594   1.12670   2.01310
H    -5.75788   1.56856   0.85133
H    -5.38269   0.18862  -0.18861
H    -6.58325   1.55350  -1.76863
H    -6.00530   3.04238  -1.01363
H    -4.46573   1.19674  -2.87156
H    -4.49545   2.96309  -2.86625
H    -1.71612   2.75734  -2.48167
H     2.78513   1.54907   0.98751
H     2.21124   2.31874   2.48218
H     2.52156   3.29326   1.04588
H     2.24722  -0.25355   3.27129
H     4.36245  -1.11359   2.36944
H     4.40243  -2.70401   0.51006
H     2.30968  -3.48395  -0.53789
H    -0.20257  -3.99088  -1.23782
H    -2.65703  -4.13251  -1.45715
H    -4.12655  -2.81759  -0.00875
H    -3.23001  -1.34364   1.72821
O     1.42009  -0.01513  -0.84001
