51

Fe    0.00000   0.00000   0.00000
Cl    0.11918   2.15458  -0.15835
N     1.87926  -0.27026  -0.27471
N    -0.00186  -1.84237   0.18003
N    -1.87402   0.20090   0.35734
N     0.12861   0.14168   1.84095
C     2.80518   0.62553  -0.59456
H     2.45000   1.63882  -0.71393
C     4.13494   0.29478  -0.77489
H     4.84536   1.06089  -1.03897
C     4.53425  -1.02930  -0.61819
H     5.56765  -1.31248  -0.74716
C     3.57824  -1.97382  -0.31239
H     3.82752  -3.01751  -0.20214
C     2.25116  -1.56579  -0.15653
C     1.15213  -2.42551   0.12465
H     1.27362  -3.49447   0.26273
C    -1.16830  -2.56079   0.45019
C    -2.14770  -2.65362  -0.53647
H    -1.94372  -2.21921  -1.50226
C    -3.34018  -3.29184  -0.25932
H    -4.09606  -3.36388  -1.02648
C    -3.57034  -3.83548   0.99519
H    -4.50825  -4.32460   1.21060
C    -2.59177  -3.75668   1.97059
H    -2.76135  -4.18756   2.94635
C    -1.38908  -3.12916   1.70014
H    -0.62234  -3.06346   2.45820
C    -2.87419   0.30552  -0.50914
H    -2.59191   0.27047  -1.55139
C    -4.19048   0.45938  -0.11682
H    -4.96405   0.54476  -0.86224
C    -4.49489   0.50818   1.24044
H    -5.51541   0.62126   1.57285
C    -3.46275   0.42764   2.15027
H    -3.63837   0.48338   3.21312
C    -2.15560   0.28512   1.67807
C    -0.98786   0.22503   2.48988
H    -1.03259   0.26645   3.57283
C     1.35510   0.07340   2.50469
C     2.25964   1.12345   2.36146
H     1.95495   1.98735   1.79228
C     3.50855   1.03516   2.94334
H     4.20624   1.85127   2.83237
C     3.86912  -0.09321   3.66379
H     4.85058  -0.16247   4.10788
C     2.96532  -1.12967   3.81911
H     3.23699  -2.00680   4.38777
C     1.70742  -1.04679   3.24976
H     0.99851  -1.85346   3.36632
O    -0.20127  -0.17190  -1.62863
