69

Fe    0.00000   0.00000   0.00000
Cl   -1.42865   0.96721   1.41525
O     1.19352  -1.00723  -1.31962
N     1.39559   1.11789   0.66981
N    -1.49633  -0.81884  -0.83222
N    -0.27706   1.50609  -1.36569
N     1.81058  -1.90667  -3.30769
H     1.66694  -1.84426  -4.30574
C     2.38475   0.80012   1.50291
H     2.34986  -0.20763   1.88865
C     3.37041   1.69567   1.87510
H     4.14439   1.38612   2.55894
C     3.33907   2.98375   1.36438
H     4.09504   3.70819   1.62539
C     2.29088   3.32872   0.52094
H     2.20582   4.32846   0.12221
C     1.33415   2.38153   0.20877
C     0.10291   2.69460  -0.59397
H    -0.69042   2.87601   0.13862
H     0.23589   3.58023  -1.22885
C    -1.70632   1.43113  -1.67754
H    -1.95159   1.92133  -2.62925
H    -2.24325   1.93165  -0.86621
C    -2.18301   0.00252  -1.64852
C    -3.29520  -0.41996  -2.35224
H    -3.81476   0.27192  -2.99847
C    -3.74405  -1.72594  -2.19824
H    -4.61800  -2.07187  -2.72796
C    -3.04860  -2.55919  -1.33638
H    -3.36496  -3.57545  -1.16696
C    -1.93224  -2.07014  -0.68363
H    -1.35579  -2.67367   0.00293
C     0.55966   1.45211  -2.56151
H     1.59281   1.62092  -2.24252
H     0.27512   2.26752  -3.24667
C     0.50874   0.13122  -3.32731
H    -0.52630  -0.16611  -3.51096
H     0.99987   0.26767  -4.29312
C     1.19348  -0.97871  -2.54297
C     2.31997  -3.15777  -2.84885
C     3.40880  -3.19884  -1.97973
C     3.85889  -4.44282  -1.55256
H     4.68811  -4.49955  -0.86572
C     3.26239  -5.60530  -1.99176
H     3.62143  -6.56274  -1.64537
C     2.20336  -5.54870  -2.87944
H     1.75115  -6.46697  -3.21580
C     1.71509  -4.33044  -3.32431
C     4.11623  -1.95395  -1.50556
H     3.65918  -1.07859  -1.97406
C     3.96656  -1.81573   0.00941
H     2.91311  -1.82681   0.27821
H     4.40817  -0.87931   0.34359
H     4.46204  -2.63434   0.52403
C     5.59127  -1.98071  -1.91741
H     6.11791  -2.79887  -1.43420
H     6.07279  -1.04909  -1.62804
H     5.68785  -2.10044  -2.99517
C     0.52009  -4.25579  -4.25174
H     0.66218  -3.42025  -4.94986
C     0.32186  -5.50840  -5.10469
H     1.24470  -5.78025  -5.61205
H    -0.44146  -5.31896  -5.85679
H    -0.00983  -6.34819  -4.50058
C    -0.73557  -3.97946  -3.41825
H    -0.92797  -4.81739  -2.75316
H    -1.60223  -3.83995  -4.06162
H    -0.60964  -3.09145  -2.80352
O     0.29502  -1.23849   1.04958
