51

Br   -1.97553  -0.66554   1.01667
Ni    0.00000   0.00000   0.00000
O     1.20471   0.27040   2.05892
H     1.98989   0.78852   1.82674
O    -0.72051   1.92019   0.15912
H    -1.68595   1.81324   0.21062
C     1.84613   0.27037   4.38935
H     2.07593  -0.79047   4.32137
H     1.48835   0.48540   5.39205
H     2.76046   0.83649   4.21618
C    -0.44352   3.11676  -0.56892
H     0.64620   3.21921  -0.55618
C     0.78379   0.65099   3.36043
H    -0.13240   0.07794   3.54133
C    -1.08531   4.29810   0.15460
H    -0.73530   4.35475   1.18288
H    -2.16996   4.19651   0.16000
H    -0.82623   5.22389  -0.35029
C    -0.92982   3.01303  -2.00870
H    -0.49149   2.13654  -2.47816
H    -0.63279   3.89403  -2.56978
H    -2.01497   2.92218  -2.03843
C     0.46558   2.14198   3.41310
H     0.05676   2.40761   4.38363
H    -0.26684   2.38381   2.64684
H     1.36641   2.72938   3.23685
O    -1.20560  -0.27086  -2.05895
H    -1.99096  -0.78873  -1.82683
O     0.71946  -1.92059  -0.15957
H     1.68489  -1.81360  -0.21137
C    -1.84701  -0.27077  -4.38976
H    -2.07650   0.79011  -4.32172
H    -1.48934  -0.48580  -5.39252
H    -2.76153  -0.83657  -4.21667
C     0.44275  -3.11727   0.56842
H    -0.64698  -3.21982   0.55588
C    -0.78489  -0.65148  -3.36061
H     0.13150  -0.07877  -3.54161
C     1.08472  -4.29860  -0.15505
H     0.73464  -4.35542  -1.18329
H     2.16936  -4.19694  -0.16060
H     0.82586  -5.22441   0.34990
C     0.92938  -3.01342   2.00809
H     0.49101  -2.13699   2.47764
H     0.63249  -3.89445   2.56918
H     2.01453  -2.92249   2.03776
C    -0.46719  -2.14258  -3.41346
H    -0.05828  -2.40838  -4.38391
H     0.26506  -2.38459  -2.64710
H    -1.36821  -2.72973  -3.23730
O     1.40529   0.47191  -0.72454
