57

Rh    0.00000   0.00000   0.00000
P    -0.79850   0.66957   2.14045
C     0.96255  -1.08494  -1.59253
C     0.57191   0.15012  -2.06924
C     1.74865   1.09189  -1.83891
C     1.72334   1.20177  -0.31374
C     2.11752  -0.04965   0.16732
C     2.38276  -0.91237  -1.06645
C     2.93096   0.13413  -2.04798
C     0.52352   1.09873   3.49608
C     1.65256   1.98034   2.94229
C     1.21115  -0.21146   3.90201
C    -0.00830   1.81612   4.73999
C    -1.88853  -0.72378   2.93541
C    -2.15990  -0.65300   4.44083
C    -1.16049  -2.03847   2.61143
C    -3.26523  -0.80853   2.26540
C    -1.88241   2.24187   1.91633
C    -0.98213   3.45593   1.66711
C    -2.66511   2.04190   0.61460
C    -2.84769   2.58780   3.04932
H     0.51576  -2.04296  -1.82227
H    -0.24440   0.35744  -2.74854
H     1.74674   2.02504  -2.39697
H     1.83558   2.15463   0.18038
H     2.59367  -0.27181   1.11122
H     2.96312  -1.81903  -0.91423
H     3.00754  -0.23602  -3.07097
H     3.88619   0.55742  -1.73441
H     1.30013   2.89614   2.48770
H     2.30554   2.25834   3.77069
H     2.25345   1.44134   2.22222
H     1.40894  -0.82197   3.02230
H     2.16455   0.01065   4.38187
H     0.62527  -0.79109   4.60657
H    -0.18254   2.86913   4.53446
H    -0.92019   1.38300   5.12766
H     0.74668   1.75990   5.52515
H    -2.71512   0.24288   4.70593
H    -1.26247  -0.71065   5.04630
H    -2.77916  -1.50983   4.70879
H    -0.77021  -2.01486   1.58788
H    -0.34172  -2.24100   3.29376
H    -1.85907  -2.87075   2.67672
H    -3.17074  -0.92019   1.19122
H    -3.89307   0.04718   2.49063
H    -3.77985  -1.69209   2.64352
H    -0.22367   3.21834   0.92251
H    -0.51300   3.81516   2.57822
H    -1.58751   4.27207   1.27227
H    -1.96874   1.86389  -0.21142
H    -3.34781   1.20228   0.66007
H    -3.24154   2.93880   0.38858
H    -3.38951   3.49438   2.77774
H    -2.32938   2.78077   3.98230
H    -3.58315   1.80841   3.21451
O    -1.42167  -0.66990  -0.50258
