32

Pd    0.00000   0.00000   0.00000
F     4.28731   3.04378   1.37994
N     0.50461  -0.63579  -1.86845
H     0.00293  -1.49559  -2.10872
H     0.16351   0.10392  -2.49426
N    -0.49670   0.61010   1.76933
C     2.35417  -0.68531  -3.50064
H     3.39475  -0.95688  -3.64941
H     2.20666   0.32929  -3.86679
H     1.74372  -1.36662  -4.09174
C     1.96926  -0.77791  -2.02383
H     2.24164  -1.77287  -1.64141
C     2.62656   0.27090  -1.13974
C     3.92524   0.70884  -1.34991
H     4.50967   0.32280  -2.17152
C     4.49616   1.64583  -0.50531
H     5.50437   1.99840  -0.65348
C     3.74021   2.12610   0.54477
C     2.44422   1.70038   0.77809
H     1.90799   2.11601   1.62202
C     1.86065   0.75499  -0.06100
C    -0.11922  -0.05599   2.86149
H     0.67047  -0.79294   2.72921
C    -0.69357   0.16992   4.09995
H    -0.36573  -0.39613   4.95729
C    -1.69301   1.12456   4.21425
H    -2.16372   1.32011   5.16532
C    -2.07701   1.81854   3.07630
H    -2.85315   2.56606   3.11743
C    -1.45701   1.53068   1.87402
H    -1.73914   2.04145   0.95473
O    -1.48608  -0.70110  -0.15007
