32

Pd    0.00000   0.00000   0.00000
Br    3.34976  -0.11597  -4.88285
N    -0.68592  -1.90520   0.23152
H     0.03533  -2.36356   0.80196
H    -1.55456  -1.91535   0.77369
N     0.66691   1.80714  -0.20230
C    -0.71389  -4.12477  -0.84525
H    -1.39801  -4.44224  -0.05962
H     0.30163  -4.39421  -0.55963
H    -0.97169  -4.66688  -1.74989
C    -0.82128  -2.61474  -1.06019
H    -1.81780  -2.37681  -1.46084
C     0.22073  -2.04716  -2.01106
C     0.63444  -2.72698  -3.14660
H     0.23583  -3.70244  -3.38249
C     1.56390  -2.16203  -4.00342
H     1.88833  -2.68750  -4.88811
C     2.06584  -0.91095  -3.70312
C     1.66174  -0.21341  -2.57735
H     2.08273   0.76647  -2.38724
C     0.72430  -0.76677  -1.70927
C     1.62251   2.22867   0.62807
H     2.10931   1.46484   1.23283
C     1.97537   3.56201   0.73191
H     2.75088   3.86255   1.41829
C     1.31086   4.49648  -0.04879
H     1.55844   5.54486   0.01440
C     0.31770   4.05270  -0.90915
H    -0.22767   4.74411  -1.53176
C     0.02697   2.70078  -0.95807
H    -0.74189   2.31044  -1.62219
O    -0.68173   0.43226   1.43906
