31

Pt    0.00000   0.00000   0.00000
S     1.57994  -1.58548   0.24866
O     1.54306   3.71885   0.16117
O     2.84707  -1.11250   0.76991
N    -1.25850   1.57611  -0.19943
N    -2.47455   3.97093  -0.98585
N     1.23400   1.47024   0.48396
H     2.18978   1.36326   0.80594
C    -0.57926   2.71581  -0.28741
C    -1.21170   3.91353  -0.67850
H    -0.61691   4.81286  -0.75702
C    -3.20532   2.85449  -0.80818
C    -4.59333   2.90053  -1.04316
H    -5.01070   3.83398  -1.38498
C    -5.36662   1.79612  -0.81449
H    -6.43087   1.83257  -0.99075
C    -4.78866   0.61354  -0.32628
H    -5.41896  -0.23701  -0.11727
C    -3.44008   0.52645  -0.10577
H    -2.99624  -0.37865   0.28008
C    -2.60855   1.62871  -0.37287
C     0.87553   2.69820   0.12529
C     1.03914  -2.96174   1.30750
H     1.84912  -3.67859   1.37632
H     0.14916  -3.39835   0.86974
H     0.81878  -2.55344   2.28866
C     1.93822  -2.51527  -1.27297
H     2.31989  -1.81268  -2.00683
H     1.01854  -2.96891  -1.62299
H     2.69210  -3.25981  -1.04515
O    -0.90519  -1.26275  -0.55550
