29

Pt    0.00000   0.00000   0.00000
Cl   -1.61530  -0.96396   1.21087
N     0.85865   1.91894   4.27156
N     0.61198   0.84901   1.69619
N     0.17896   4.44177   4.76855
H    -0.00854   5.39059   5.04387
H     0.37775   3.73339   5.45529
O    -0.01721   4.87137   2.55087
C     0.48750   2.64959   3.24265
C     0.35478   2.11748   1.94872
H     0.01335   2.75817   1.14443
C     1.05292   0.07485   2.72574
C     1.40415  -1.26823   2.51372
H     1.33853  -1.66707   1.50441
C     1.80153  -2.04650   3.56819
H     2.05816  -3.08200   3.40697
C     1.87715  -1.51153   4.86445
H     2.18713  -2.14729   5.67997
C     1.57084  -0.19917   5.09831
H     1.63439   0.23430   6.08377
C     1.15630   0.62896   4.03575
C     0.18644   4.10476   3.46759
N     1.33016   0.84695  -1.14848
C     1.77993   1.12592  -2.17141
C     2.34926   1.47746  -3.43051
H     3.38679   1.14720  -3.47975
H     2.30216   2.55700  -3.57378
H     1.77518   0.98354  -4.21549
O    -0.57632  -0.71484  -1.37090
