53

Pd    0.00000   0.00000   0.00000
S    -0.85077   2.09443  -0.74509
S     1.17970  -1.68030   1.20508
N    -0.82692   4.35739   0.64632
N     2.26777  -1.38311   3.61017
C     0.60777   1.08007   1.45774
C     0.51993   2.49505   1.50368
C     1.50777   2.97353   2.39947
C     2.14867   1.78909   3.00806
C     1.92135   4.29586   2.50858
C     1.51764   0.64719   2.45601
C    -0.36899   3.09488   0.55932
C     2.93348   4.83761   3.28484
C     3.84452   4.19484   4.11139
C     4.02250   2.83248   4.30866
C     3.29039   1.77135   3.80056
C    -1.20089   4.92698   1.92765
C     1.71179  -0.76532   2.55202
C    -2.70201   4.72535   2.16410
C    -3.51160   5.34865   1.03144
C    -3.05946   4.76163  -0.30231
C    -1.55186   4.95583  -0.45660
C     1.98117  -0.94658   4.96411
C     0.81662  -1.76394   5.53457
C     1.13893  -3.25440   5.49784
C     1.48083  -3.66679   4.06921
C     2.61566  -2.78836   3.54484
H     1.39081   4.99959   1.88054
H     3.03883   5.91394   3.22332
H     4.54153   4.83940   4.63236
H     4.86201   2.55808   4.93578
H     3.67408   0.78725   4.03642
H    -0.96845   5.99709   1.91605
H    -0.63917   4.44618   2.72725
H    -2.97461   5.17011   3.12226
H    -2.90793   3.65398   2.21263
H    -4.57486   5.16020   1.18515
H    -3.35919   6.43111   1.02668
H    -3.28263   3.69462  -0.33624
H    -3.57519   5.24510  -1.13179
H    -1.19969   4.51137  -1.38731
H    -1.31459   6.02529  -0.45744
H     1.71929   0.11047   4.96744
H     2.87551  -1.09881   5.57749
H    -0.07477  -1.56866   4.93474
H     0.61960  -1.43767   6.55675
H     1.98965  -3.46000   6.15273
H     0.28740  -3.82978   5.86323
H     1.78380  -4.71296   4.03155
H     0.61031  -3.53959   3.42467
H     3.50892  -2.92997   4.16291
H     2.85266  -3.04145   2.51159
O    -0.50731  -0.92693  -1.26726
