64

P     0.55637  -1.98421  -0.85178
Cl   -0.46350   2.14491   0.61732
O     2.01442  -2.54825  -0.40770
C     2.36032  -2.66197   0.95580
H     1.54571  -3.15542   1.49476
Pd    0.00000   0.00000   0.00000
C     2.70399  -1.30854   1.61393
H     3.10763  -1.51709   2.60814
S     1.30826  -0.13653   1.89990
C     3.72280  -0.55685   0.79066
O     3.07983  -4.91061   0.76134
C     5.06953  -0.65480   1.12464
H     5.36330  -1.23001   1.99139
C     6.03580  -0.02115   0.36463
H     7.07615  -0.10840   0.64056
C     5.66834   0.72538  -0.74170
H     6.42088   1.22090  -1.33614
C     4.32985   0.84301  -1.07338
H     4.03157   1.43498  -1.92533
C     3.36017   0.20894  -0.31447
H     2.30950   0.35153  -0.59991
C     0.21720  -0.75987   3.28920
C    -0.00087  -2.26322   3.28078
H    -0.73652  -2.51272   4.04488
H     0.91266  -2.80684   3.51307
H    -0.39683  -2.59499   2.32033
C    -1.10588  -0.03818   3.05610
H    -1.54927  -0.34164   2.09221
H    -0.95484   1.04068   3.02764
H    -1.80745  -0.27491   3.85424
C     0.87813  -0.30223   4.58248
H     1.02913   0.77408   4.56603
H     1.84396  -0.78502   4.71896
H     0.24786  -0.55148   5.43381
C     3.56102  -3.61366   1.00064
H     4.28458  -3.31627   0.22822
H     4.05532  -3.56647   1.98395
C     4.10533  -5.86426   0.63178
H     4.76587  -5.62445  -0.20951
H     3.61740  -6.81949   0.45201
H     4.70646  -5.92624   1.54712
C     0.78903  -2.19427  -2.63213
C     2.00270  -1.84117  -3.21069
H     2.81488  -1.49661  -2.58597
C     2.16197  -1.93544  -4.58129
H     3.10452  -1.66215  -5.03318
C     1.11147  -2.36662  -5.37485
H     1.23615  -2.43106  -6.44581
C    -0.10221  -2.70465  -4.79815
H    -0.92374  -3.03057  -5.41861
C    -0.26859  -2.61591  -3.42843
H    -1.21819  -2.85802  -2.97338
C    -0.62323  -3.28214  -0.37147
C    -0.27567  -4.62795  -0.37712
H     0.71595  -4.92124  -0.69109
C    -1.19917  -5.56971   0.04063
H    -0.93511  -6.61691   0.04328
C    -2.46148  -5.17206   0.45414
H    -3.17912  -5.91259   0.77518
C    -2.80626  -3.82889   0.46303
H    -3.78964  -3.52413   0.78853
C    -1.88436  -2.87986   0.05913
H    -2.13218  -1.81631   0.05749
O    -0.92785   0.12370  -1.35879
