27

Pd    0.00000   0.00000   0.00000
N     1.06941  -1.67087   0.00949
N     2.58409  -3.16238  -0.51326
C     0.83400  -2.79019   0.74690
H     0.02789  -2.84805   1.45585
C     3.71335  -3.78675  -1.14137
H     3.41162  -4.72504  -1.60940
H     4.49111  -3.99608  -0.40412
H     4.11430  -3.12264  -1.90441
C     2.12457  -1.92036  -0.73806
H     2.55956  -1.24012  -1.44891
C     1.77347  -3.72549   0.42718
H     1.92212  -4.72172   0.78821
Br   -0.04728  -0.06762  -2.43915
N    -1.06993   1.67057  -0.00945
N    -2.58568   3.16079   0.51388
C    -0.83602   2.78993  -0.74725
H    -0.03036   2.84839  -1.45666
C    -3.71502   3.78405   1.14296
H    -3.41381   4.72241   1.61113
H    -4.49347   3.99295   0.40639
H    -4.11480   3.11934   1.90604
C    -2.12497   1.91919   0.73856
H    -2.55903   1.23871   1.44973
C    -1.77604   3.72451  -0.42704
H    -1.92568   4.72057  -0.78812
O     0.03235   0.04576   1.64905
