58

Zn    0.00000   0.00000   0.00000
Cl    0.42106  -1.38659   1.65103
N     1.82468   1.32437   0.12730
N    -0.61173   1.97260  -0.53412
N    -2.25844   0.05604   0.10422
C     1.69884   2.44306  -0.46079
C     0.35213   2.77603  -0.95689
C     0.07879   3.81545  -1.84546
H     0.86024   4.46751  -2.19923
C    -1.22370   3.97497  -2.29017
H    -1.46491   4.76413  -2.98663
C    -2.21116   3.10433  -1.85824
H    -3.22081   3.20025  -2.22208
C    -1.85668   2.08986  -0.96939
C    -2.78272   1.05046  -0.48665
C     2.80793   3.42483  -0.67825
H     3.69158   3.11802  -0.12262
H     2.50384   4.41850  -0.35370
H     3.06072   3.47211  -1.73685
C    -4.25041   1.23159  -0.71989
H    -4.81066   0.47265  -0.17787
H    -4.47296   1.13756  -1.78215
H    -4.56740   2.21942  -0.38963
C     3.03868   0.85166   0.64382
C     3.99830   0.27671  -0.19518
C     5.15045  -0.24043   0.38084
H     5.89403  -0.69469  -0.25761
C     5.35361  -0.18582   1.74651
H     6.25596  -0.59426   2.17602
C     4.39331   0.38417   2.56274
H     4.54388   0.42051   3.63148
C     3.22453   0.90258   2.03023
C     3.78680   0.19602  -1.67669
H     2.75733  -0.06742  -1.91196
H     4.44331  -0.55507  -2.10884
H     4.00719   1.15208  -2.15472
C     2.16932   1.50412   2.90426
H     2.50642   1.54837   3.93629
H     1.27360   0.88509   2.85437
H     1.90595   2.50938   2.57424
C    -2.99330  -1.02452   0.60980
C    -3.44656  -2.04072  -0.23725
C    -4.10323  -3.12456   0.32883
H    -4.44847  -3.91990  -0.31544
C    -4.31305  -3.20103   1.69253
H    -4.82467  -4.05329   2.11378
C    -3.85656  -2.18845   2.51672
H    -4.01087  -2.24838   3.58380
C    -3.18756  -1.09400   1.99419
C    -3.21182  -1.98056  -1.71620
H    -2.20806  -1.62342  -1.93901
H    -3.92266  -1.30671  -2.19707
H    -3.33325  -2.96722  -2.15583
C    -2.67213  -0.00059   2.87638
H    -3.03567   0.97506   2.55275
H    -1.58335   0.00975   2.82768
H    -2.97425  -0.16554   3.90691
O     0.11083  -0.32767  -1.61333
