36

C     2.31116   0.06389   2.01671
C     2.50687   1.18972   2.83990
H     1.83002   2.02682   2.74387
C     3.54860   1.20391   3.74476
C     4.41914   0.12522   3.86781
H     5.23019   0.15295   4.57875
C     4.22444  -0.98191   3.05178
C     3.18905  -1.02872   2.13735
H     3.03820  -1.89040   1.50249
C     3.77841   2.39904   4.63494
C     5.13313  -2.17761   3.18679
C    -2.99314  -0.65937  -1.26297
H    -3.55565  -0.03443  -0.55635
H    -2.83301  -1.64938  -0.82368
C    -3.68369  -0.70889  -2.62102
H    -3.37436  -1.59587  -3.17447
H    -4.76633  -0.70788  -2.52835
C    -3.13383   0.55018  -3.28376
H    -3.20425   0.53120  -4.36792
H    -3.64998   1.43409  -2.90820
C    -1.68774   0.53342  -2.80291
H    -1.24269   1.53142  -2.73624
H    -1.06458  -0.10089  -3.44785
Cl   -0.38367  -2.28600  -0.02729
Cl    1.25770  -0.24277  -1.92364
Cl   -1.73690   0.23101   1.50827
F     5.35824  -2.78398   2.01375
F     4.60594  -3.11058   3.99953
F     6.33013  -1.86471   3.69623
F     4.98450   2.95191   4.42532
F     3.73970   2.06698   5.93568
F     2.87616   3.36906   4.45940
N     1.31378   0.03539   1.14327
O    -1.71418  -0.04532  -1.48872
Mo    0.00000   0.00000   0.00000
O    -0.10769   1.61696  -0.31040
