51

Au    0.00000   0.00000   0.00000
P    -4.53936  -0.63630   0.34260
C    -1.97561  -0.26566  -0.08779
C    -2.82011  -0.61521   0.92682
C    -4.06992  -0.22040  -1.33597
C    -2.66898  -0.04980  -1.35745
C    -2.07662   0.29100  -2.56617
H    -1.00620   0.42452  -2.61259
C    -2.85900   0.45581  -3.69882
H    -2.38763   0.71971  -4.63386
C    -4.23473   0.28932  -3.65228
H    -4.82689   0.42310  -4.54503
C    -4.85518  -0.05034  -2.45824
H    -5.92699  -0.18399  -2.41170
C    -5.43193  -2.20435   0.31417
C    -4.91760  -3.20262  -0.51025
H    -4.04792  -2.99315  -1.11929
C    -5.52381  -4.44368  -0.54091
H    -5.13024  -5.21883  -1.18086
C    -6.63513  -4.69186   0.25057
H    -7.10878  -5.66145   0.22422
C    -7.13781  -3.70118   1.07965
H    -7.99997  -3.89985   1.69869
C    -6.53671  -2.45670   1.12136
H    -6.92547  -1.68382   1.77105
C    -5.61839   0.69125   0.92657
C    -5.09517   1.67307   1.76079
H    -4.06998   1.59927   2.09657
C    -5.89714   2.72902   2.15489
H    -5.49744   3.49242   2.80488
C    -7.20920   2.80619   1.71545
H    -7.83308   3.63075   2.02575
C    -7.72493   1.83096   0.87536
H    -8.74618   1.89812   0.53086
C    -6.93198   0.77225   0.47331
H    -7.32536   0.00896  -0.18441
C    -2.58814  -0.95594   2.31959
C    -3.68888  -1.20032   3.14175
H    -4.68801  -1.12373   2.71575
C    -3.54440  -1.53014   4.47273
H    -4.42220  -1.71112   5.07736
C    -2.28061  -1.63273   5.04028
C    -1.17706  -1.39322   4.22656
H    -0.18434  -1.46922   4.64562
C    -1.32019  -1.06281   2.89592
H    -0.44683  -0.88149   2.28641
C    -2.10047  -1.97778   6.48578
H    -1.76111  -1.10252   7.04027
H    -1.34736  -2.75505   6.60210
H    -3.03345  -2.32237   6.92535
O     1.63475   0.22086   0.03622
