54

Os    0.00000   0.00000   0.00000
P     1.43681   0.77346   1.57608
N     1.30017  -1.30681  -0.53653
H     0.89565  -1.92889  -1.24691
C     2.59212  -1.51660  -0.41541
C     3.22390  -2.54957  -1.25623
C     2.58116  -3.76427  -1.50055
H     1.63186  -3.97483  -1.02655
C     3.16223  -4.72034  -2.31134
H     2.65458  -5.65850  -2.48284
C     4.39108  -4.47881  -2.90274
H     4.84110  -5.22336  -3.54213
C     5.03669  -3.27493  -2.67180
H     5.99089  -3.07709  -3.13775
C     4.46355  -2.32034  -1.85383
H     4.95969  -1.37406  -1.70049
C     3.43071  -0.84006   0.52424
H     4.45800  -1.18885   0.51663
C     3.11577   0.10211   1.44735
C     4.17952   0.54575   2.41552
H     4.24004  -0.14431   3.25872
H     3.98190   1.54036   2.80335
H     5.15428   0.55018   1.93031
C     0.85475   0.27351   3.29398
H    -0.22395   0.47188   3.26465
C     1.06082  -1.23447   3.41212
H     2.11246  -1.46635   3.56294
H     0.73545  -1.72882   2.49515
H     0.49556  -1.63863   4.25021
C     1.43284   1.00301   4.50101
H     1.00270   0.57888   5.40812
H     1.18772   2.06180   4.48432
H     2.51082   0.88979   4.55998
C     1.71927   2.61422   1.71708
H     2.17969   2.81952   2.69012
C     0.36133   3.30303   1.64416
H     0.47596   4.38299   1.71764
H    -0.29241   2.96916   2.44877
H    -0.10711   3.07051   0.68792
C     2.63899   3.10779   0.60642
H     2.20586   2.87631  -0.36303
H     3.61668   2.63594   0.66261
H     2.76799   4.18608   0.68428
C    -1.82883  -0.82583   1.12601
H    -1.88306  -1.32440   2.08279
C    -1.82552  -1.47372  -0.13875
H    -1.76819  -2.54158  -0.29454
C    -2.00133  -0.49926  -1.13297
H    -2.11741  -0.67951  -2.19024
C    -2.16855   0.75912  -0.48877
H    -2.43052   1.68258  -0.98412
C    -2.08741   0.56015   0.89902
H    -2.31481   1.29215   1.66041
O     0.59185   0.97517  -1.19216
