30

Pt    0.00000   0.00000   0.00000
S     1.54653  -0.19443  -1.85992
Cl   -1.53034   0.35483   1.63989
C     0.11433  -2.06561   0.56594
H     0.35366  -2.71076  -0.27368
H    -0.78529  -2.32639   1.10908
C     1.11248  -1.35088   1.21694
H     0.96506  -1.05731   2.25413
C     2.57306  -1.39287   0.80854
H     2.95762  -0.36536   0.73951
H     3.14596  -1.90975   1.58365
C     2.45540  -1.60819  -1.64139
C     3.81668  -3.30189  -2.98369
C     5.19054  -2.84249  -2.48513
H     5.92843  -3.61619  -2.67779
H     5.18437  -2.63140  -1.41950
H     5.49292  -1.93828  -3.00721
C     3.39255  -4.61928  -2.31744
H     3.90221  -5.44906  -2.79979
H     2.32102  -4.76859  -2.42766
H     3.64724  -4.65840  -1.26018
C     3.86744  -3.50862  -4.49893
H     4.62364  -4.24581  -4.75322
H     4.11837  -2.57880  -5.00407
H     2.90641  -3.86067  -4.86610
N     2.81401  -2.25529  -2.76116
H     2.47611  -1.79951  -3.59739
N     2.82904  -2.07114  -0.44182
H     3.19260  -3.00932  -0.39059
O    -0.49308   1.40874  -0.70344
