29

Pd    0.00000   0.00000   0.00000
Cl   -1.72634   0.13268  -1.36932
S     1.35081   0.04493  -2.00862
N     3.44275   0.57114  -0.44972
H     4.31396   0.24434  -0.06034
N     3.86445  -0.69237  -2.34437
C     1.55133  -0.78982   1.27545
H     2.24728  -1.39654   0.69888
H     1.06145  -1.28806   2.10580
C     1.62207   0.58483   1.26193
H     1.18101   1.15587   2.07922
C     2.62093   1.37168   0.43055
H     2.07840   2.11577  -0.17654
H     3.29561   1.91715   1.09784
C     2.97962  -0.03128  -1.56989
C     3.43922  -1.41113  -3.53267
H     2.37308  -1.62229  -3.47169
H     4.00265  -2.34843  -3.57248
C     3.75423  -0.57635  -4.77654
H     3.51969  -1.13041  -5.68510
H     3.16621   0.35204  -4.75006
C     5.55621   0.41428  -3.69382
H     5.03595   1.38263  -3.62312
H     6.62697   0.58557  -3.81485
C     5.28336  -0.38982  -2.40886
H     5.83498  -1.33424  -2.44750
H     5.61855   0.18828  -1.55001
O     5.13399  -0.28302  -4.83504
O    -1.06212  -0.01927   1.26255
