54

Ni    0.00000   0.00000   0.00000
Cl   -1.82765  -0.58910   0.69820
N     1.70413   0.61302  -0.59196
N     1.37174  -0.34168   1.82825
O    -0.18058  -0.05002  -2.41590
O     0.73721   1.35010  -3.90309
C     2.68729   0.82424   0.29276
C     3.85588   1.48760  -0.08089
H     4.63601   1.66124   0.64198
C     4.00667   1.92709  -1.38496
H     4.90279   2.44718  -1.68692
C     2.98800   1.69172  -2.29445
H     3.05263   2.01161  -3.32124
C     1.85260   1.02816  -1.85054
C     2.44935   0.31354   1.65214
C     3.46770   0.57339   2.72113
H     3.61129   1.64466   2.85248
H     4.42410   0.12658   2.45308
H     3.12985   0.14369   3.66163
C     1.01274  -0.94547   3.03836
C     1.39535  -2.27470   3.25672
C     0.97259  -2.89724   4.42047
H     1.25464  -3.91896   4.61741
C     0.18571  -2.22247   5.33558
H    -0.13755  -2.72233   6.23673
C    -0.19560  -0.91411   5.09990
H    -0.81715  -0.40771   5.82001
C     0.20876  -0.25204   3.95169
C     2.25306  -2.95491   2.21962
H     1.88723  -2.66015   1.23231
H     3.27842  -2.57609   2.30508
C     2.27976  -4.47625   2.30526
H     2.78382  -4.81461   3.20774
H     2.81588  -4.88145   1.44956
H     1.26883  -4.87657   2.29700
C    -0.17568   1.16602   3.63111
H     0.71793   1.79874   3.68207
H    -0.51736   1.19072   2.59041
C    -1.26198   1.76167   4.51510
H    -2.15424   1.14106   4.48922
H    -1.52465   2.74954   4.14425
H    -0.92701   1.86327   5.54601
C     0.69728   0.72294  -2.74113
C    -0.38693   1.14145  -4.76866
H    -0.47668   0.06930  -4.97608
H    -1.29149   1.46567  -4.24348
C    -0.16369   1.93758  -6.03915
H    -0.05935   2.99344  -5.80484
H    -1.01212   1.80427  -6.70351
H     0.73823   1.60021  -6.54357
O     0.33869  -2.16257  -0.47563
H    -0.07282  -2.18523  -1.34872
H    -0.35241  -2.44115   0.14751
O    -0.44047   1.59012   0.00411
