51

Hg    0.00000   0.00000   0.00000
N     1.53667   1.88077  -0.19122
N     2.15881   3.78647   0.70765
N     1.26555   5.04670   2.48816
N     0.44738   6.05237   2.12103
N    -0.60270   6.04802   2.81967
C     1.95104   2.47113   0.90331
H     2.11884   1.97365   1.83772
C     1.47434   2.85777  -1.14444
H     1.18323   2.62709  -2.15038
C     1.84834   4.04718  -0.59885
H     1.91551   5.03115  -1.01584
C     2.44952   4.75341   1.73801
H     3.21956   4.35471   2.40790
H     2.78891   5.68184   1.26919
C     0.67198   4.32779   3.49051
C     1.02193   3.20274   4.22536
H     1.95797   2.68681   4.08305
C     0.10370   2.76485   5.15309
H     0.32432   1.87919   5.72738
C    -1.11416   3.42681   5.36432
H    -1.79231   3.03333   6.10582
C    -1.46190   4.55338   4.65720
H    -2.39247   5.07223   4.81784
C    -0.55326   5.00589   3.70147
Br    0.39579  -0.36167   2.38315
N    -1.55343   1.86601   0.20448
N    -2.19008   3.77383  -0.67947
N    -1.31522   5.03543  -2.46779
N    -0.48018   6.02840  -2.10388
N     0.56020   6.01726  -2.81689
C    -1.97047   2.46205  -0.88596
H    -2.13034   1.97139  -1.82538
C    -1.50216   2.83508   1.16635
H    -1.21146   2.59812   2.17090
C    -1.88511   4.02584   0.62990
H    -1.96223   5.00586   1.05438
C    -2.49004   4.74639  -1.70210
H    -3.27159   4.35498  -2.36297
H    -2.81791   5.67436  -1.22432
C    -0.74368   4.31762  -3.48365
C    -1.11807   3.20376  -4.22339
H    -2.05919   2.69932  -4.07282
C    -0.21826   2.76249  -5.16736
H    -0.45785   1.88515  -5.74676
C     1.00505   3.41075  -5.38920
H     1.66808   3.01500  -6.14303
C     1.37658   4.52683  -4.67752
H     2.31150   5.03516  -4.84625
C     0.48669   4.98269  -3.70580
O    -0.26680  -0.23758  -1.61086
