65

C     0.93261  -0.50112   1.70806
C     0.50652  -1.41201   2.67627
H    -0.38170  -2.00458   2.49922
C     1.18460  -1.59076   3.86222
H     0.83012  -2.29956   4.59582
C     2.32951  -0.84496   4.12241
C     2.80235   0.05476   3.15111
C     2.12453   0.22767   1.93910
C     3.14147  -0.87138   5.31083
C     4.22552   0.01383   5.22864
C     5.13657   0.15555   6.26062
H     5.96244   0.84426   6.17120
C     4.95709  -0.60526   7.40014
H     5.65460  -0.51203   8.21885
C     3.88678  -1.48865   7.50196
H     3.76468  -2.07299   8.40186
C     2.98162  -1.62612   6.46957
H     2.15257  -2.31232   6.55428
C     2.53496   1.08661   0.83466
C     3.70768   1.83876   0.76685
H     4.40119   1.83866   1.58884
C     3.98847   2.58415  -0.36244
H     4.89613   3.16618  -0.41601
C     3.09088   2.56920  -1.41867
H     3.26929   3.13445  -2.31888
C     1.94513   1.80441  -1.29584
H     1.20993   1.76517  -2.09100
C    -3.34213  -0.88623  -0.77431
C    -4.38338  -0.04669  -0.39872
H    -4.37634   0.42151   0.57593
C    -5.42568   0.19437  -1.27715
H    -6.23354   0.84828  -0.98200
C    -5.42908  -0.39008  -2.53179
H    -6.24023  -0.19303  -3.21727
C    -4.38524  -1.21889  -2.91353
H    -4.37952  -1.66398  -3.89767
C    -3.34418  -1.46572  -2.04077
H    -2.51581  -2.09494  -2.33834
C    -1.72946  -2.98551   0.16799
C    -2.82341  -3.84506   0.12918
H    -3.82741  -3.44400   0.16679
C    -2.62253  -5.20871   0.01430
H    -3.47141  -5.87645  -0.01250
C    -1.33683  -5.71902  -0.07639
H    -1.18692  -6.78456  -0.16903
C    -0.24661  -4.86394  -0.06557
H     0.75364  -5.26088  -0.15557
C    -0.44234  -3.50006   0.05397
H     0.39606  -2.80836   0.05008
C    -2.59004  -0.82536   1.95223
C    -3.32255  -1.71119   2.72977
H    -3.51514  -2.71415   2.37793
C    -3.78810  -1.31148   3.97121
H    -4.35318  -2.00316   4.57901
C    -3.53009  -0.03313   4.43708
H    -3.89571   0.27071   5.40680
C    -2.79613   0.85394   3.66443
H    -2.58905   1.84847   4.03079
C    -2.32462   0.45656   2.42851
H    -1.73060   1.12878   1.80957
N     1.67442   1.08938  -0.21054
P    -1.90428  -1.18091   0.30138
S     4.25763   0.87011   3.70559
Pt    0.00000   0.00000   0.00000
O    -0.69181   0.53208  -1.40028
