25

Ir    0.00000   0.00000   0.00000
Cl    0.16051  -2.36160  -0.09615
Cl    0.09770   2.35985   0.22999
N    -1.98679  -0.05205   0.22155
N     0.52943  -0.14908   1.94934
N     2.08420   0.08080  -0.18758
C    -2.61929   0.79259   1.04252
C    -3.99623   0.83676   1.15022
C    -4.76263  -0.02639   0.38261
C    -4.10560  -0.90461  -0.46284
C    -2.72362  -0.88801  -0.51733
C     1.76092  -0.36047   2.17086
C     2.68480  -0.52499   1.00681
H    -2.00224   1.47814   1.60651
H    -4.45523   1.54489   1.82155
H    -5.84009  -0.01039   0.43983
H    -4.65134  -1.59593  -1.08439
H    -2.19025  -1.56156  -1.17308
H    -0.07298  -0.06666   2.76417
H     2.17717  -0.46753   3.16987
H     3.67692  -0.11756   1.23322
H     2.77958  -1.60525   0.83625
H     2.30338   1.07943  -0.24240
H     2.41691  -0.36352  -1.04354
O    -0.23195   0.12788  -1.62860
