24

Ir    0.00000   0.00000   0.00000
Cl   -1.60533  -1.62104  -0.20737
Cl    0.34522   0.05940  -2.33150
N    -1.46203   1.41044  -0.23875
N     1.65923   1.25233   0.21220
N     1.40853  -1.27906   0.21369
C    -2.39549   1.28501  -1.18536
C    -3.40893   2.21169  -1.35718
C    -3.46553   3.31594  -0.52394
C    -2.49188   3.44673   0.45370
C    -1.51267   2.47706   0.56250
C     2.75427   0.58975   0.34642
C     2.61893  -0.84851   0.35473
O     3.93365   1.20863   0.47065
H    -2.33183   0.41634  -1.82543
H    -4.14007   2.05832  -2.13430
H    -4.24665   4.05310  -0.63051
H    -2.48915   4.28588   1.13109
H    -0.75927   2.54235   1.33469
H     1.76414   2.26166   0.19666
H     3.47644  -1.50422   0.46622
H     1.26647  -2.29059   0.21085
H     4.66751   0.58699   0.55771
O    -0.25557   0.05801   1.62906
