19

Br    0.80511   1.86775  -1.19501
Zn    0.00000   0.00000   0.00000
N     1.31450  -1.58344  -0.68323
N     1.61267  -0.09058   1.57248
H     1.77286   0.75355   2.11726
H     1.41826  -0.84009   2.23452
C     2.54757  -1.50810  -0.18979
C     3.54701  -2.38694  -0.58743
H     4.53887  -2.29781  -0.17272
C     3.24817  -3.36750  -1.51739
H     4.00774  -4.06158  -1.84325
C     1.95592  -3.44622  -2.01421
H     1.67557  -4.19933  -2.73212
C     1.02196  -2.53058  -1.56609
H    -0.00058  -2.55317  -1.91715
C     2.81748  -0.40855   0.80180
H     3.66336  -0.68918   1.44180
H     3.09855   0.48773   0.23507
O    -1.28673  -0.82207   0.62532
