26

I     0.36661   2.41455  -0.60999
Zn    0.00000   0.00000   0.00000
N     0.70284  -1.12227  -1.66500
N     1.87722  -0.73072   0.75958
C     0.07926  -1.23493  -2.83327
H    -0.87252  -0.72690  -2.91575
C     0.59888  -1.95287  -3.89203
H     0.05882  -2.01815  -4.82220
C     1.82532  -2.58012  -3.72276
H     2.26838  -3.15094  -4.52454
C     2.47171  -2.45972  -2.50720
H     3.42729  -2.93154  -2.33638
C     1.87500  -1.71630  -1.49285
C     2.57187  -1.58704  -0.16457
H     3.58725  -1.20661  -0.34722
H     2.67774  -2.59617   0.26062
C     2.35593  -0.51973   1.91961
C     1.63620   0.36333   2.87240
H     2.28598   1.18577   3.17058
H     1.37839  -0.20139   3.76817
H     0.72466   0.77461   2.44288
C     3.63546  -1.12080   2.40908
H     3.58021  -2.20962   2.36872
H     3.84462  -0.81591   3.42966
H     4.46459  -0.81255   1.77044
O    -1.13827  -0.93146   0.74782
