43

Pd    0.00000   0.00000   0.00000
N     1.08735  -1.37869   1.08027
C     0.50866  -2.72842   0.98566
C     1.12979  -3.66838   2.02220
C     0.49968  -5.05558   1.92940
C    -1.00863  -4.96840   2.13922
C    -1.63506  -4.03616   1.10641
C    -1.00972  -2.64637   1.18771
H     2.07157  -1.39409   0.80086
H     1.02428  -1.04517   2.04979
H     0.71362  -3.10483  -0.02526
H     0.96041  -3.26089   3.02299
H     2.20899  -3.73926   1.86272
H     0.94540  -5.71262   2.67830
H     0.70570  -5.48058   0.94481
H    -1.21474  -4.59106   3.14322
H    -1.45139  -5.96235   2.05782
H    -2.71090  -3.96490   1.27323
H    -1.47625  -4.44450   0.10605
H    -1.21806  -2.20077   2.16597
H    -1.44714  -1.99541   0.40280
Cl    0.59068  -0.97176  -1.98808
N    -1.08716   1.37884  -1.08043
C    -0.50854   2.72859  -0.98579
H    -2.07141   1.39423  -0.80110
H    -1.02404   1.04529  -2.04993
C    -1.12986   3.66854  -2.02225
C     1.00983   2.64642  -1.18788
H    -0.71350   3.10491   0.02517
C    -0.49964   5.05569  -1.92937
H    -0.96047   3.26114  -3.02306
H    -2.20907   3.73937  -1.86274
C     1.63498   4.03631  -1.10661
H     1.21810   2.20096  -2.16622
H     1.44731   1.99539  -0.40304
C     1.00866   4.96874  -2.13932
H    -0.94542   5.71276  -2.67817
H    -0.70565   5.48065  -0.94478
H     2.71080   3.96510  -1.27355
H     1.47631   4.44463  -0.10621
H     1.21465   4.59143  -3.14335
H     1.45139   5.96272  -2.05793
O    -0.42557   0.70030   1.43212
