61

Zn    0.00000   0.00000   0.00000
Cl    1.49643   1.41698   0.79956
N    -1.18573   1.24963  -1.26750
N    -3.18172   5.09423  -3.75752
N    -5.01140   3.66994  -3.37016
N    -5.34035   5.69111  -4.52190
N    -9.92240   3.69560  -4.30986
N    -3.53774   7.05609  -4.88427
H    -2.56173   7.26149  -4.77271
H    -4.15628   7.70404  -5.33707
C    -0.72712   2.43652  -1.65502
H     0.30271   2.64770  -1.40332
C    -1.51356   3.35798  -2.31965
H    -1.12297   4.31588  -2.62146
C    -2.84116   3.03485  -2.58974
C    -3.31453   1.79042  -2.18130
H    -4.33834   1.51586  -2.37512
C    -2.45152   0.93309  -1.52561
H    -2.77361  -0.03802  -1.17606
C    -3.72535   3.98635  -3.27885
C    -4.03228   5.92259  -4.37599
C    -5.78129   4.55770  -3.99818
C    -7.21237   4.25782  -4.11057
C    -8.04994   5.05406  -4.88896
H    -7.64533   5.89910  -5.42171
C    -9.39354   4.72390  -4.95145
H   -10.08584   5.30918  -5.54259
C    -9.12590   2.94251  -3.57051
H    -9.60551   2.11543  -3.06354
C    -7.76678   3.17299  -3.43466
H    -7.14203   2.54381  -2.82209
N     1.18322  -1.24929  -1.27035
N     3.17976  -5.09448  -3.75922
N     5.00911  -3.66958  -3.37246
N     5.33902  -5.69234  -4.52106
N     9.92111  -3.69681  -4.30764
N     3.53623  -7.05655  -4.88546
H     2.56014  -7.26192  -4.77444
H     4.15516  -7.70501  -5.33699
C     0.72571  -2.43771  -1.65449
H    -0.30315  -2.65014  -1.39995
C     1.51218  -3.35919  -2.31907
H     1.12256  -4.31841  -2.61791
C     2.83864  -3.03445  -2.59278
C     3.31076  -1.78829  -2.18817
H     4.33363  -1.51238  -2.38490
C     2.44783  -0.93110  -1.53223
H     2.76909   0.04126  -1.18545
C     3.72311  -3.98617  -3.28121
C     4.03068  -5.92322  -4.37670
C     5.77964  -4.55830  -3.99838
C     7.21089  -4.25876  -4.10975
C     8.05083  -5.06163  -4.87876
H     7.64801  -5.91183  -5.40464
C     9.39440  -4.73131  -4.94095
H    10.08852  -5.32184  -5.52472
C     9.12241  -2.93741  -3.57715
H     9.60028  -2.10525  -3.07685
C     7.76308  -3.16750  -3.44239
H     7.13651  -2.53306  -2.83714
O    -1.11540  -1.05765   0.59980
