70

Ir    0.00000   0.00000   0.00000
H     1.41677  -0.19458  -0.50578
P     0.01794  -1.98366   1.19783
P    -0.07584   2.24757  -0.52595
O     0.43069   2.95576   0.84830
C     0.79712   0.73448   1.70290
C     1.18532  -0.07413   2.77209
C     1.56461   0.49293   3.98200
H     1.85668  -0.14288   4.80647
C     1.57351   1.86786   4.13699
H     1.87034   2.30468   5.07838
C     1.20168   2.69063   3.08648
H     1.20206   3.76490   3.18996
C     0.82025   2.11723   1.88551
C     1.20230  -1.56460   2.56117
H     1.00176  -2.11445   3.48306
H     2.19867  -1.84634   2.20774
C    -1.62188  -2.26298   2.10465
C    -2.74479  -2.41852   1.07544
H    -3.70864  -2.20988   1.53991
H    -2.78361  -3.42535   0.67022
H    -2.61386  -1.73157   0.24049
C    -1.63340  -3.44453   3.07065
H    -1.58321  -4.39265   2.54157
H    -2.56607  -3.43192   3.63481
H    -0.81330  -3.39158   3.78394
C    -1.86660  -0.97219   2.89327
H    -1.12839  -0.83049   3.67974
H    -2.85372  -0.99861   3.35489
H    -1.82937  -0.10437   2.23507
C     0.70634  -3.59649   0.49772
C    -0.36966  -4.28321  -0.34147
H     0.08552  -5.03738  -0.98210
H    -0.86765  -3.55463  -0.97864
H    -1.10929  -4.77985   0.28163
C     1.26605  -4.55245   1.55088
H     2.11296  -4.11548   2.07387
H     1.61332  -5.45777   1.05415
H     0.51917  -4.84189   2.28315
C     1.83763  -3.16422  -0.43972
H     2.32648  -4.03956  -0.86424
H     2.58688  -2.57255   0.08389
H     1.43651  -2.56234  -1.25321
C    -1.82210   2.95507  -0.61637
C    -2.40769   2.72497  -2.00442
H    -3.48111   2.91382  -1.99109
H    -2.24726   1.69428  -2.31723
H    -1.96000   3.38917  -2.74040
C    -1.92062   4.41979  -0.19783
H    -2.96401   4.66775  -0.00204
H    -1.55991   5.08855  -0.97279
H    -1.35210   4.60046   0.71207
C    -2.58403   2.09679   0.39979
H    -2.55006   1.04581   0.10637
H    -3.63283   2.39053   0.44282
H    -2.16011   2.21406   1.39923
C     1.09422   3.02050  -1.78057
C     0.91593   2.27236  -3.09841
H     1.69842   2.55524  -3.80072
H    -0.04587   2.48921  -3.55479
H     0.97536   1.19851  -2.92570
C     0.90607   4.52261  -1.96066
H    -0.01403   4.74813  -2.49386
H     1.73449   4.92450  -2.54372
H     0.89541   5.02363  -0.99493
C     2.49721   2.75044  -1.23268
H     3.24646   3.03361  -1.96990
H     2.61758   1.69169  -1.00274
H     2.67432   3.32240  -0.32444
O    -0.94647  -0.52061  -1.24726
