49

Ru    0.00000   0.00000   0.00000
Cl   -0.92677   2.07814   0.59779
S     0.39941  -0.44124   2.19549
O     1.71747  -0.09687   2.70152
N     1.67204   0.92721  -0.39563
N     1.74267   1.42918  -1.66799
N    -0.26507   0.47038  -1.93703
H    -1.07358   0.27560  -2.52694
N    -1.78820  -0.93077   0.16997
N    -1.88628  -2.22913  -0.16284
H    -1.02435  -2.70080  -0.45784
C     2.76222   1.24807   0.24629
H     2.90588   0.94771   1.26845
C     3.62045   1.99604  -0.60201
C     4.87675   2.57495  -0.43264
H     5.39008   2.49101   0.51179
C     5.42832   3.24833  -1.49974
H     6.39961   3.70860  -1.40140
C     4.75039   3.34846  -2.71514
H     5.21116   3.88391  -3.53134
C     3.50340   2.78231  -2.90719
H     3.01246   2.88281  -3.85974
C     2.93748   2.10169  -1.83863
C     0.64619   1.67549  -3.88385
H    -0.28177   1.37573  -4.36512
H     1.48216   1.26779  -4.45034
H     0.70868   2.76249  -3.89289
C     0.67174   1.16934  -2.47989
C    -2.98109  -0.49693   0.51954
H    -3.13022   0.52642   0.80962
C    -3.91755  -1.55242   0.42421
C    -5.28864  -1.69371   0.66197
H    -5.87385  -0.85338   1.00155
C    -5.85513  -2.92625   0.44819
H    -6.91130  -3.06724   0.62215
C    -5.09428  -4.01884   0.00501
H    -5.58739  -4.96702  -0.14822
C    -3.74486  -3.91156  -0.23778
H    -3.15752  -4.74914  -0.57912
C    -3.15948  -2.66549  -0.02423
C    -0.79329   0.29205   3.35644
H    -0.79778   1.36257   3.17616
H    -0.46322   0.07384   4.36524
H    -1.77409  -0.12276   3.15305
C     0.12639  -2.18361   2.66636
H     0.73313  -2.79529   2.00536
H    -0.92473  -2.42125   2.54476
H     0.44547  -2.30793   3.69443
O     0.70146  -1.43815  -0.40272
