53

Ru    0.00000   0.00000   0.00000
S    -0.10659  -1.20021   1.94087
Cl   -0.99383  -1.87758  -1.01948
O     0.14980  -0.48951   3.18017
N     1.79254  -0.75192  -0.52068
N     1.88325  -1.44979  -1.66287
H     1.02353  -1.71758  -2.14034
C     3.00019  -0.60783  -0.01892
H     3.16098  -0.05428   0.88761
C     3.94215  -1.24457  -0.85935
C     5.32995  -1.42034  -0.84820
H     5.92715  -1.00842  -0.04982
C     5.89604  -2.12585  -1.88106
H     6.96456  -2.27823  -1.90207
C     5.11919  -2.65962  -2.92102
H     5.61346  -3.20671  -3.70956
C     3.75358  -2.50325  -2.96004
H     3.15340  -2.91032  -3.75781
C     3.16815  -1.78939  -1.91675
C     0.94738  -2.68397   1.90888
H     1.98361  -2.36387   1.87487
H     0.68132  -3.23174   1.01056
H     0.76583  -3.26758   2.80361
C    -1.69357  -2.06323   2.17637
H    -2.46172  -1.31910   2.36151
H    -1.59977  -2.71774   3.03448
H    -1.90549  -2.61398   1.26661
S     0.10660   1.20010  -1.94096
O    -0.14886   0.48896  -3.18023
N    -1.79255   0.75206   0.52050
N    -1.88332   1.45047   1.66236
H    -1.02359   1.71852   2.13967
C    -3.00015   0.60797   0.01860
H    -3.16090   0.05398  -0.88766
C    -3.94213   1.24528   0.85857
C    -5.32989   1.42137   0.84706
H    -5.92701   1.00923   0.04874
C    -5.89602   2.12759   1.87942
H    -6.96450   2.28030   1.90009
C    -5.11925   2.66174   2.91923
H    -5.61355   3.20937   3.70738
C    -3.75368   2.50504   2.95862
H    -3.15358   2.91237   3.75631
C    -3.16820   1.79050   1.91583
C    -0.94809   2.68338  -1.90986
H    -1.98416   2.36276  -1.87605
H    -0.68259   3.23162  -1.01165
H    -0.76657   3.26677  -2.80475
C     1.69313   2.06402  -2.17604
H     2.46185   1.32031  -2.36044
H     1.59939   2.71809  -3.03450
H     1.90430   2.61530  -1.26642
O     0.69585   1.31482   0.71383
