17

Au    0.00000   0.00000   0.00000
Cl   -1.24322  -0.17057   1.84061
N    -1.59303  -0.14127  -1.27611
O     0.99061   0.20665  -1.67488
C     0.26191  -0.17440  -2.78618
C    -1.21430  -0.16248  -2.56066
C    -2.16608  -0.20004  -3.57491
C    -3.50748  -0.21500  -3.24341
C    -3.87382  -0.19290  -1.90174
C    -2.88259  -0.15376  -0.94428
H     0.53994  -1.20009  -3.09728
H     0.52928   0.50101  -3.61228
H    -1.84152  -0.21373  -4.60318
H    -4.26034  -0.24156  -4.01643
H    -4.90895  -0.20483  -1.60299
H    -3.08959  -0.13881   0.11734
O     1.37636   0.10502   0.90394
