43

Zn    0.00000   0.00000   0.00000
Cl   -2.10330   0.84883   0.03972
N    -0.11139  -0.11017  -2.16475
N    -1.61684   0.40984  -4.41631
N     0.93948   1.82334  -0.70494
N    -2.44395  -3.02775  -3.85467
N    -2.78299  -2.48570   0.88701
O    -0.73214  -2.03707   0.05395
C    -0.16813   1.12635  -2.67271
C    -0.92192   1.35923  -3.82669
H    -0.99869   2.33947  -4.27513
C    -1.56864  -0.81416  -3.89244
C    -0.77600  -1.07244  -2.76637
H    -0.70314  -2.06252  -2.34548
C     0.54860   2.16784  -1.93195
C     0.81106   3.43722  -2.44378
H     0.50840   3.70362  -3.44335
C     1.47960   4.35141  -1.64647
H     1.69108   5.34285  -2.01876
C     1.87007   3.97706  -0.37061
H     2.38812   4.66286   0.27999
C     1.57656   2.69056   0.05807
H     1.85224   2.33191   1.04056
C    -2.37811  -1.86764  -4.50738
C    -3.04955  -1.64334  -5.70992
H    -2.96336  -0.68297  -6.19108
C    -3.80848  -2.66977  -6.24374
H    -4.34101  -2.53224  -7.17357
C    -3.87374  -3.87639  -5.56391
H    -4.45400  -4.70206  -5.94481
C    -3.17125  -3.99682  -4.37144
H    -3.19206  -4.91623  -3.80076
C    -1.47839  -2.29751   0.99720
H    -1.08590  -2.42877   2.01696
C    -3.44303  -2.27829  -0.38569
H    -4.37486  -2.83993  -0.40291
H    -2.79400  -2.62051  -1.19050
H    -3.64657  -1.21404  -0.53068
C    -3.63526  -2.63740   2.03715
H    -4.26524  -1.75229   2.15277
H    -3.03228  -2.75764   2.93471
H    -4.27585  -3.51347   1.91577
O     0.82526  -0.10895   1.42463
