42

Cu    0.00000   0.00000   0.00000
P     0.94259  -1.99107   0.52720
S     1.21645   4.48153   0.37579
C     1.12431   1.56364  -0.10548
C    -0.05417   1.91083  -0.30166
C    -1.03948   2.98405  -0.49451
C    -0.18695   4.23621  -0.77573
H    -0.79095   5.13699  -0.66836
H     0.23328   4.20378  -1.78145
C     2.55511   3.45464  -0.33691
H     2.48167   3.54636  -1.42074
H     3.47706   3.92736   0.00153
C     2.52306   1.97413   0.08862
C     3.47388   1.15496  -0.78506
H     3.41889   0.10653  -0.49890
H     4.49750   1.50201  -0.66104
H     3.20083   1.23897  -1.83512
C     2.89025   1.82940   1.56685
H     2.26445   2.48359   2.16993
H     3.93260   2.09764   1.72548
H     2.73425   0.80208   1.89137
C    -1.96270   2.68791  -1.67679
H    -1.39018   2.56209  -2.59444
H    -2.67411   3.49916  -1.81509
H    -2.50986   1.76755  -1.48420
C    -1.85359   3.15387   0.78988
H    -2.36363   2.22327   1.02824
H    -2.59547   3.93927   0.66222
H    -1.19902   3.41957   1.61800
C     2.66965  -2.54450   0.86323
H     3.09338  -1.94851   1.66967
H     3.27548  -2.40745  -0.03085
H     2.68279  -3.59572   1.14782
C     0.08161  -2.59053   2.02155
H    -0.98385  -2.41914   1.87276
H     0.41469  -2.02406   2.89054
H     0.27122  -3.65310   2.17567
C     0.41081  -3.22192  -0.71193
H     0.57867  -4.23498  -0.34556
H     0.95745  -3.06766  -1.64135
H    -0.65105  -3.06081  -0.89347
O    -1.52159  -0.63318  -0.07967
