45

Ni    0.00000   0.00000   0.00000
C     2.33576  -1.02741   1.52827
C     2.97830  -1.82880   0.57330
H     2.58321  -1.91804  -0.42573
C     4.10822  -2.49568   0.96018
H     4.62222  -3.12437   0.24901
C     4.62904  -2.38914   2.26539
H     5.52263  -2.94254   2.51309
C     4.03174  -1.60310   3.21055
H     4.42904  -1.51174   4.20999
C     2.87053  -0.90217   2.84566
C     2.01401  -0.00908   3.48775
H     2.02532   0.37699   4.48709
N     1.07149   0.33200   2.60742
C     0.22271   1.86180   0.36800
C     0.18504   2.34444   1.67642
C     0.34194   3.69486   1.94532
H     0.30800   4.04940   2.96617
C     0.53837   4.58731   0.90564
H     0.65923   5.63971   1.11316
C     0.58155   4.12980  -0.40000
H     0.73932   4.82392  -1.21382
C     0.42673   2.77810  -0.66370
N    -0.82617   1.51053  -2.25589
C    -1.76192   1.73844  -3.17871
H    -1.62663   2.45948  -3.95953
C    -2.82850   0.88532  -2.90025
C    -4.08587   0.64602  -3.47852
H    -4.38826   1.18728  -4.36210
C    -4.89666  -0.28148  -2.88684
H    -5.86911  -0.49151  -3.30675
C    -4.49617  -0.97593  -1.72779
H    -5.17728  -1.69248  -1.29440
C    -3.27806  -0.76789  -1.14107
H    -2.97831  -1.30578  -0.25647
C    -2.41788   0.16543  -1.73806
N     1.22903  -0.26493   1.42694
C     0.03495   1.32092   2.78297
H     0.13603   1.76850   3.77270
H    -0.94467   0.82845   2.70788
C     0.40894   2.23569  -2.07755
H     0.46328   3.03048  -2.82288
H     1.25216   1.54604  -2.22382
N    -1.18174   0.56908  -1.38224
O    -0.19865  -1.61001  -0.30149
