45

Re    0.00000   0.00000   0.00000
S     1.80566  -0.27894   1.48558
S    -1.26706   0.60170   1.82956
C    -1.73686  -0.86425  -2.96842
C    -0.47020  -0.61818  -3.48780
H     0.29892  -0.19289  -2.85003
C    -0.19713  -0.92003  -4.81003
H     0.78809  -0.73544  -5.21103
C    -1.18609  -1.45952  -5.61611
H    -0.97110  -1.69980  -6.64669
C    -2.45373  -1.68987  -5.10412
H    -3.22514  -2.10483  -5.73617
C    -2.73489  -1.38968  -3.78437
H    -3.72344  -1.56725  -3.38422
C    -3.16128  -1.67802  -0.56404
C    -3.08570  -2.99824  -0.99744
H    -2.41340  -3.26428  -1.80075
C    -3.86362  -3.96516  -0.38639
H    -3.80700  -4.98951  -0.72389
C    -4.70405  -3.62501   0.66128
H    -5.30616  -4.38471   1.13726
C    -4.76386  -2.31392   1.10830
H    -5.40760  -2.05211   1.93486
C    -3.99155  -1.34056   0.50356
H    -4.01543  -0.31791   0.85585
C    -3.16486   1.05281  -1.46478
C    -4.52423   0.93352  -1.73622
H    -4.98783  -0.04232  -1.77633
C    -5.28440   2.07057  -1.93926
H    -6.34104   1.97900  -2.14427
C    -4.69539   3.32355  -1.87867
H    -5.29580   4.20742  -2.03523
C    -3.34084   3.44331  -1.61289
H    -2.88302   4.41960  -1.56273
C    -2.57424   2.31109  -1.40512
H    -1.51587   2.38801  -1.18407
C     1.31338   0.97098   2.72920
H     2.04088   0.90104   3.53802
H     1.37538   1.95066   2.25090
C    -0.08198   0.69298   3.22976
H    -0.44635   1.48716   3.88192
H    -0.12938  -0.26567   3.74867
O     0.50732   1.40152  -0.74256
P    -2.08685  -0.39696  -1.25053
O     0.05157  -1.62780  -0.26479
