52

Re    0.00000   0.00000   0.00000
P     1.16030  -0.33390  -2.16266
S    -0.84068   0.65181   2.18643
S    -1.84656   0.82354  -1.13787
C     2.85965  -0.90746  -1.88595
C     3.11694  -1.60481  -0.70874
H     2.31621  -1.74680   0.01162
C     4.38294  -2.10331  -0.46231
H     4.58258  -2.63877   0.45362
C     5.39440  -1.91025  -1.38952
H     6.38509  -2.29338  -1.19536
C     5.13860  -1.22342  -2.56572
H     5.92842  -1.07419  -3.28722
C     3.87424  -0.72387  -2.82027
H     3.68049  -0.18177  -3.73519
C     1.26803   1.14435  -3.19639
C     2.29033   2.07171  -3.01082
H     3.06998   1.87704  -2.28770
C     2.29692   3.24298  -3.74601
H     3.09127   3.96071  -3.60315
C     1.28355   3.50043  -4.65519
H     1.29135   4.41796  -5.22462
C     0.25379   2.58819  -4.82563
H    -0.54345   2.79621  -5.52354
C     0.23833   1.41510  -4.09524
H    -0.57091   0.70679  -4.20639
C     0.46740  -1.60855  -3.25971
C     0.96923  -1.78019  -4.54713
H     1.75691  -1.13601  -4.91139
C     0.44970  -2.77014  -5.35927
H     0.83724  -2.90341  -6.35856
C    -0.56671  -3.59009  -4.89345
H    -0.96969  -4.36129  -5.53301
C    -1.06565  -3.42026  -3.61285
H    -1.85836  -4.05741  -3.25137
C    -0.55057  -2.43145  -2.79235
H    -0.93158  -2.28753  -1.78870
C    -3.01612   1.38567   0.16769
H    -2.53392   2.22264   0.67645
H    -3.89140   1.72912  -0.38215
C    -3.35959   0.29718   1.12194
C    -4.58372  -0.35562   1.05850
H    -5.29001  -0.07292   0.29094
C    -4.90739  -1.34597   1.96697
H    -5.86634  -1.83871   1.90744
C    -4.00067  -1.70185   2.95296
H    -4.25045  -2.47108   3.66853
C    -2.76829  -1.08263   3.01483
H    -2.04496  -1.36102   3.76577
C    -2.43472  -0.09660   2.09492
O    -0.35046  -1.59731   0.27043
O     1.02914   1.28628   0.09408
