31

Pt    0.00000   0.00000   0.00000
Cl    0.38034  -2.27619  -0.10351
N    -1.10778  -0.25870   1.58552
C    -2.25016  -0.94548   1.51491
C    -3.05966  -1.14917   2.61279
C    -2.68962  -0.63351   3.85342
C    -1.49557   0.07757   3.90908
C    -0.74093   0.24452   2.76430
C    -3.54510  -0.84164   5.05839
H    -2.51174  -1.34942   0.54361
H    -3.97539  -1.70978   2.50675
H    -1.15348   0.50290   4.83972
H     0.18565   0.80679   2.78306
H    -3.09934  -0.38694   5.93851
H    -3.68150  -1.90618   5.24236
H    -4.53014  -0.40574   4.89836
N     1.10788   0.25673  -1.58577
C     2.25014   0.94372  -1.51525
C     3.05950   1.14762  -2.61319
C     2.68943   0.63198  -3.85382
C     1.49538  -0.07913  -3.90944
C     0.74088  -0.24629  -2.76460
C     3.54489   0.84013  -5.05879
H     2.51171   1.34771  -0.54397
H     3.97518   1.70831  -2.50719
H     1.15323  -0.50438  -4.84010
H    -0.18573  -0.80852  -2.78336
H     3.09913   0.38542  -5.93891
H     3.68128   1.90467  -5.24275
H     4.52993   0.40424  -4.89877
O    -0.27199   1.62576   0.07369
