31

Pt    0.00000   0.00000   0.00000
I     1.72181  -1.43642   1.34064
N    -0.13364   1.24278   1.50427
C    -1.02557   1.03860   2.47276
C    -1.15493   1.89167   3.54729
C    -0.33241   3.01311   3.64245
C     0.59320   3.20847   2.62229
C     0.66071   2.30779   1.57868
C    -0.44874   3.95278   4.79483
H    -1.65375   0.15744   2.37468
H    -1.89164   1.68723   4.30831
H     1.25861   4.05734   2.63768
H     1.37382   2.43838   0.76933
H     0.23599   4.78959   4.68882
H    -0.22538   3.43190   5.72515
H    -1.46583   4.33519   4.86669
N     0.13302  -1.24343  -1.50374
C     1.02456  -1.04041  -2.47279
C     1.15296  -1.89438  -3.54671
C     0.32985  -3.01548  -3.64060
C    -0.59539  -3.20960  -2.61985
C    -0.66191  -2.30808  -1.57693
H    -1.37471  -2.43770  -0.76713
H    -1.26124  -4.05814  -2.63426
C     0.44514  -3.95609  -4.79228
H    -0.23995  -4.79249  -4.68525
H     0.22155  -3.43580  -5.72288
H     1.46202  -4.33903  -4.86433
H     1.88940  -1.69088  -4.30824
H     1.65318  -0.15948  -2.37566
O    -1.08559   0.90925  -0.84692
