31

Pt    0.00000   0.00000   0.00000
N    -0.93801   1.69190   0.27366
C    -1.06631   2.55311  -0.73291
C    -1.71805   3.76972  -0.60696
C    -2.25545   4.08329   0.63998
C    -2.11987   3.18532   1.68418
C    -1.45230   1.99553   1.46201
C    -1.83771   4.70896  -1.76141
H    -0.62610   2.25403  -1.68115
H    -2.77197   5.02018   0.78442
H    -2.52516   3.40029   2.65979
H    -1.32300   1.26126   2.25180
H    -1.37587   4.29470  -2.65321
H    -1.35458   5.65578  -1.52460
H    -2.88635   4.91343  -1.97164
I    -2.26306  -1.15705  -0.60259
N     0.93685  -1.69283  -0.27196
C     1.06328  -2.55126   0.73727
C     1.71356  -3.76903   0.61555
C     2.25170  -4.08691  -0.62999
C     2.11833  -3.19173  -1.67687
C     1.45201  -2.00043  -1.45886
H     1.32449  -1.26823  -2.25082
H     2.52431  -3.41005  -2.65145
H     2.76707  -5.02491  -0.77123
C     1.83074  -4.70507   1.77287
H     1.36962  -4.28704   2.66330
H     1.34539  -5.65144   1.53879
H     2.87882  -4.91141   1.98402
H     0.62267  -2.24886   1.68432
O     1.42985   0.73138   0.37829
