31

Pt    0.00000   0.00000   0.00000
I    -2.14775   0.14250  -1.50620
N    -0.12629  -1.96870   0.00523
C    -0.75846  -2.67121   0.95032
C    -0.79611  -4.05899   0.89463
C    -0.17323  -4.72265  -0.14647
C     0.47905  -3.97577  -1.11726
C     0.47621  -2.60170  -1.00068
C    -1.39714  -1.90204   2.05859
N     0.20436   1.95839  -0.11573
C    -0.39117   2.81830   0.71641
C    -0.20912   4.18774   0.56853
C     0.59388   4.66884  -0.44937
C     1.20217   3.76038  -1.30400
C     0.97919   2.41503  -1.09894
C    -1.25930   2.24154   1.78475
H    -1.31289  -4.60460   1.66827
H    -0.19500  -5.79978  -0.20244
H     0.97816  -4.44694  -1.94803
H     0.97218  -1.97725  -1.73929
H    -1.90259  -1.01756   1.65930
H    -0.63120  -1.57398   2.76476
H    -2.11968  -2.51236   2.59278
H    -0.69914   4.86257   1.25243
H     0.74431   5.72962  -0.57557
H     1.83702   4.08643  -2.11143
H     1.43728   1.66831  -1.74235
H    -0.76763   1.37821   2.24281
H    -2.20492   1.91117   1.34914
H    -1.47290   2.97705   2.55495
O     1.34780  -0.08901   0.94764
