40

Pt    0.00000   0.00000   0.00000
Cl   -1.24730   1.92016   0.44382
N    -0.64168   0.33914  -3.87376
N    -0.73934  -0.18816  -2.67443
N    -0.03401   0.52467  -1.87065
C    -0.63525  -0.95115   1.81422
C     0.52471  -0.25476   2.06621
C     0.15105   1.42823  -3.84543
C     0.55196   1.55513  -2.52790
C     1.38855   2.54134  -1.86196
C     1.42843   3.85610  -2.32050
C     2.18896   4.79849  -1.65497
C     2.91551   4.44024  -0.53119
C     2.88988   3.13122  -0.07850
C     2.13432   2.18136  -0.73976
C    -1.22443  -0.31601  -5.01404
C    -0.18937  -1.18539  -5.69340
C     0.06783  -1.05566  -7.04993
C     1.02290  -1.85465  -7.65544
C     1.73226  -2.77688  -6.90580
C     1.48184  -2.90444  -5.54930
C     0.52215  -2.11421  -4.94334
H    -1.59874  -0.53052   2.08903
H    -0.60812  -2.02679   1.66068
H     1.47557  -0.77921   2.12399
H     0.48469   0.71935   2.54713
H     0.38191   2.00239  -4.71717
H     0.84322   4.14003  -3.18250
H     2.20823   5.81841  -2.00907
H     3.50154   5.18141  -0.00885
H     3.46178   2.84878   0.79227
H     2.15061   1.14460  -0.40398
H    -2.04673  -0.93117  -4.63798
H    -1.61526   0.43568  -5.70370
H    -0.48299  -0.33437  -7.63703
H     1.21479  -1.75162  -8.71298
H     2.48042  -3.39524  -7.37836
H     2.03333  -3.61970  -4.95889
H     0.32843  -2.21573  -3.88510
O     0.90051  -1.30165  -0.46613
