65

Zr    0.00000   0.00000   0.00000
Si    1.66910  -4.48212  -0.00278
N    -0.72493  -1.94620  -0.30048
C     0.48771  -2.07717  -0.70816
C     1.09243  -3.22346  -1.32562
C     1.21421  -3.30783  -2.66571
C     1.92073  -4.31112  -3.44135
C     3.16117  -4.82044  -3.05820
C     3.80981  -5.75996  -3.83690
C     3.23603  -6.21020  -5.01457
C     2.01439  -5.69584  -5.41936
C     1.36996  -4.74896  -4.64882
C     0.54043  -4.34378   1.54092
C     3.47295  -4.10447   0.52972
C     1.46843  -6.26997  -0.63821
C    -1.78711  -2.92985  -0.55912
C    -2.41974  -2.60128  -1.88407
C    -2.19863  -3.39846  -2.99995
C    -2.74055  -3.04918  -4.22496
C    -3.50280  -1.89957  -4.34617
C    -3.72748  -1.10203  -3.23571
C    -3.18861  -1.44775  -2.00870
C    -0.31703   0.25835  -2.52067
C    -1.03756   1.29417  -1.89725
C    -0.11498   2.14114  -1.24106
C     1.18279   1.63539  -1.48567
C     1.05792   0.46146  -2.25793
C     0.39200   0.94244   2.31750
C     1.44880   1.41734   1.51927
C     2.23155   0.30748   1.12438
C     1.66252  -0.85131   1.69758
C     0.51398  -0.46126   2.42107
H     0.70152  -2.56079  -3.26712
H     3.62651  -4.44841  -2.15945
H     4.77355  -6.13963  -3.52787
H     3.74315  -6.94674  -5.61999
H     1.56745  -6.03235  -6.34385
H     0.42013  -4.34497  -4.97074
H     0.12575  -3.34551   1.66799
H    -0.29372  -5.03769   1.48315
H     1.09131  -4.58689   2.44511
H     4.15593  -4.86006   0.15401
H     3.81640  -3.13939   0.16623
H     3.56999  -4.10068   1.61146
H     0.47053  -6.44685  -1.02852
H     2.17145  -6.50865  -1.42744
H     1.63162  -6.97159   0.17403
H    -2.52243  -2.84252   0.24825
H    -1.36057  -3.94058  -0.58080
H    -1.60040  -4.29447  -2.90979
H    -2.56752  -3.67646  -5.08756
H    -3.92207  -1.62735  -5.30344
H    -4.32646  -0.20805  -3.32711
H    -3.36537  -0.83187  -1.13686
H    -0.73540  -0.48851  -3.18388
H    -2.10148   1.47168  -1.98789
H    -0.35653   3.08853  -0.76950
H     2.11434   2.13868  -1.25765
H     1.87604  -0.10125  -2.69076
H    -0.33048   1.55339   2.84507
H     1.69678   2.46082   1.36325
H     3.18208   0.34821   0.60578
H     2.11040  -1.83550   1.69736
H    -0.09861  -1.10014   3.04752
O    -1.51854   0.29673   0.57314
