43

Ti    0.00000   0.00000   0.00000
Cl    1.15329  -1.42821  -1.14605
Cl    1.46800   1.35727   0.80501
O    -1.03741  -0.70290   1.06946
C    -1.75651  -1.55288   1.81629
C    -1.24758  -1.97932   3.06222
C    -1.98424  -2.90816   3.77783
H    -1.62557  -3.26846   4.72724
C    -3.19199  -3.40714   3.31058
C    -3.68682  -2.94317   2.10308
H    -4.63328  -3.32725   1.76211
C    -3.00025  -2.01280   1.33702
C    -3.94163  -4.42463   4.11583
H    -4.87577  -4.69557   3.63162
H    -4.16396  -4.03578   5.10837
H    -3.34124  -5.32483   4.23977
C     0.06723  -1.41237   3.59108
C     1.22057  -1.79824   2.64828
H     2.15990  -1.41300   3.04209
H     1.08421  -1.39318   1.63513
H     1.29232  -2.88331   2.57856
C     0.42196  -1.95617   4.98142
H    -0.35132  -1.71808   5.70735
H     1.34803  -1.49483   5.31653
H     0.57373  -3.03231   4.95871
C    -0.05444   0.11590   3.72142
H    -0.79722   0.36009   4.47913
H    -0.35291   0.59418   2.78264
H     0.90136   0.53795   4.02516
C    -3.56352  -1.47960   0.02228
C    -4.94846  -2.05693  -0.29914
H    -4.90637  -3.13478  -0.43389
H    -5.30855  -1.61795  -1.22670
H    -5.66592  -1.82038   0.48248
C    -2.63398  -1.86446  -1.14209
H    -1.62499  -1.44242  -1.02765
H    -3.04945  -1.49617  -2.07895
H    -2.54858  -2.94911  -1.20253
C    -3.72320   0.04749   0.12295
H    -2.78681   0.54985   0.38790
H    -4.46561   0.28768   0.88246
H    -4.06177   0.44740  -0.83072
O    -0.65479   1.00642  -1.13176
