45

Re    0.00000   0.00000   0.00000
Cl   -1.17727  -1.92219   0.10581
N     1.53249  -0.84708   0.20880
C     0.84726   1.59560  -2.56818
C     0.13809   0.82004  -3.69783
C     0.47513   3.08695  -2.64989
C     2.37069   1.41158  -2.68490
N     0.38683   1.07592  -1.35196
C     2.73865  -1.46548   0.54322
C     2.64441  -2.13671   1.92509
C     3.86396  -0.41296   0.54838
C     3.01965  -2.52894  -0.53815
C     0.45567   0.97413   2.95708
C     0.92661   1.78484   3.98735
C     1.70494   2.89710   3.73334
C     2.02776   3.21647   2.42813
C     1.56771   2.41951   1.39065
C     0.78521   1.30246   1.64258
C    -0.40743  -0.20585   3.30445
H     0.66941   1.53147   5.00624
H     2.05513   3.51017   4.55032
H     2.63451   4.08221   2.20906
H     1.82539   2.67411   0.37504
H     0.35510  -0.24129  -3.59852
H     0.48467   1.17212  -4.66548
H    -0.93677   0.96466  -3.62869
H     0.98474   3.64156  -1.86690
H    -0.59594   3.20853  -2.51514
H     0.76279   3.48771  -3.61792
H     2.87193   1.95640  -1.89003
H     2.60966   0.35626  -2.58668
H     2.72195   1.77543  -3.64625
H     1.81795  -2.84270   1.93748
H     2.47747  -1.38189   2.68924
H     3.56531  -2.66898   2.14736
H     3.63972   0.35593   1.28238
H     3.93795   0.05318  -0.42870
H     4.80912  -0.88719   0.79663
H     3.95158  -3.04146  -0.31745
H     3.08921  -2.05453  -1.51288
H     2.20823  -3.25095  -0.56132
H    -1.45035   0.02188   3.07819
H    -0.33394  -0.43855   4.36485
H    -0.12429  -1.09096   2.73347
O    -1.42604   0.75574   0.34317
