47

Ni    0.00000   0.00000   0.00000
P     0.63226  -1.95335   0.71301
C     1.54981  -3.05486  -0.45399
H     0.93560  -3.14445  -1.35421
H     2.44441  -2.49783  -0.74577
C     1.92934  -4.43424   0.06521
H     2.56136  -4.93429  -0.66668
H     1.05062  -5.05403   0.22587
H     2.48440  -4.37244   0.99900
C     1.85059  -1.62955   2.05913
H     1.27776  -1.36861   2.95249
H     2.43688  -2.52792   2.26586
C     2.74661  -0.46230   1.65783
H     3.39815  -0.16320   2.47665
H     2.11876   0.39685   1.38450
H     3.36280  -0.71893   0.79745
C    -0.57294  -3.06950   1.54325
H    -0.03753  -3.93358   1.94366
H    -1.00039  -2.50799   2.37680
C    -1.67911  -3.48993   0.58392
H    -2.40979  -4.11817   1.08973
H    -1.27717  -4.04132  -0.26447
H    -2.19146  -2.60537   0.20582
P    -0.63809   1.95070  -0.71546
Cl   -1.01113   0.19677   1.81430
C    -1.55564   3.05227   0.45149
H    -0.94148   3.14178   1.35176
H    -2.45026   2.49524   0.74318
C    -1.93507   4.43173  -0.06759
H    -2.56717   4.93170   0.66428
H    -1.05630   5.05152  -0.22804
H    -2.48999   4.37007  -1.00147
C    -1.85626   1.62711  -2.06179
H    -1.28338   1.36625  -2.95514
H    -2.44248   2.52553  -2.26853
C    -2.75246   0.45991  -1.66075
H    -3.40393   0.16102  -2.47970
H    -2.12489  -0.39951  -1.38752
H    -3.36874   0.71654  -0.80044
C     0.56716   3.06696  -1.54553
H     0.03170   3.93102  -1.94592
H     0.99469   2.50555  -2.37910
C     1.67335   3.48749  -0.58624
H     2.40393   4.11586  -1.09203
H     1.27139   4.03875   0.26222
H     2.18584   2.60298  -0.20825
O     0.79389  -0.15762  -1.43785
