65

Ir    0.00000   0.00000   0.00000
N     1.93378  -0.01730  -0.68105
C     2.52667  -1.21558  -0.58040
N     3.84208  -1.14201  -0.92364
C     4.10360   0.16443  -1.25995
C     2.88596   0.86499  -1.10379
C     2.81703   2.22683  -1.37980
H     1.89054   2.76424  -1.26341
C     3.96880   2.85602  -1.80022
H     3.94791   3.91288  -2.01966
C     5.16910   2.15889  -1.94980
H     6.04844   2.69047  -2.28091
C     5.25744   0.80739  -1.68463
H     6.19288   0.28220  -1.80607
C     0.42440  -1.89280   0.16987
C     1.72741  -2.32950  -0.12588
C     2.05399  -3.66725   0.08921
H     3.03481  -4.05981  -0.12932
C     1.09390  -4.52393   0.60840
H     1.35282  -5.56076   0.76839
C    -0.17671  -4.09010   0.95840
H    -0.86566  -4.79896   1.39057
C    -0.52126  -2.75572   0.75060
N    -1.76113  -0.71665   0.76509
C    -1.72038  -2.01990   1.07738
N    -2.86805  -2.41173   1.69617
C    -3.68096  -1.30735   1.78551
C    -2.96820  -0.24172   1.19042
C    -3.53180   1.02801   1.11601
H    -2.99107   1.84206   0.66224
C    -4.79286   1.20248   1.64377
H    -5.25610   2.17685   1.60463
C    -5.49080   0.14636   2.23261
H    -6.47627   0.32655   2.63491
C    -4.95080  -1.12123   2.31270
H    -5.50373  -1.92761   2.77054
C     4.80074  -2.21046  -0.90497
H     4.87412  -2.63857   0.09653
H     5.77404  -1.81570  -1.18826
H     4.51888  -2.99248  -1.61340
C    -3.17403  -3.72036   2.20105
H    -4.15012  -3.69370   2.68060
H    -2.42976  -4.02785   2.93804
H    -3.20153  -4.44935   1.38818
N    -0.44912   2.06377  -0.17198
C    -0.96795   2.43540  -1.36101
C    -1.28727   3.77283  -1.60189
H    -1.69949   4.07027  -2.55258
C    -1.07101   4.71762  -0.61687
H    -1.31329   5.75559  -0.79366
C    -0.53803   4.31243   0.59916
H    -0.35422   5.01762   1.39375
C    -0.24329   2.97226   0.77285
H     0.17455   2.59877   1.69879
C    -0.74432   0.06073  -1.87859
C    -1.14397   1.34356  -2.31322
C    -1.67535   1.52780  -3.59028
H    -1.98167   2.50976  -3.92081
C    -1.81688   0.45692  -4.44777
H    -2.22877   0.60489  -5.43576
C    -1.42827  -0.80828  -4.03533
H    -1.53804  -1.64986  -4.70542
C    -0.90120  -0.99650  -2.76908
H    -0.60526  -1.99245  -2.46833
O     0.57754   0.13191   1.53998
