32

Ag    0.00000   0.00000   0.00000
N    -2.32886  -0.49767   2.10158
N    -0.56356  -1.58652   2.63174
N     1.27755  -4.39770  -1.00367
C    -3.24547   0.39190   1.41792
H    -2.67435   0.82465   0.58250
C    -4.42871  -0.39450   0.85960
H    -5.06155   0.26321   0.27104
H    -5.02742  -0.82151   1.66121
H    -4.07622  -1.19886   0.21784
C    -3.69427   1.51275   2.35211
H    -2.83021   2.03782   2.75266
H    -4.28121   1.12052   3.17972
H    -4.30556   2.22362   1.80396
C    -1.04881  -0.70062   1.73526
C    -2.64086  -1.24411   3.20374
H    -3.60636  -1.23337   3.66427
C    -1.52513  -1.93562   3.53642
H    -1.34746  -2.62783   4.33403
C     0.77918  -2.11762   2.59501
H     0.92493  -2.74328   3.48006
H     1.49375  -1.28829   2.62055
C     1.83493  -2.49565   0.32530
H     2.43639  -1.60331   0.43958
C     1.94170  -3.27105  -0.82431
H     2.58931  -2.96985  -1.63557
C     0.47134  -4.80778  -0.04118
H    -0.04974  -5.73713  -0.22994
C     0.28462  -4.11415   1.14438
H    -0.39098  -4.48825   1.89986
C     0.98383  -2.92805   1.33711
O     0.83466   0.50500  -1.33072
