37

Ti    0.00000   0.00000   0.00000
Cl   -1.43988  -1.63733  -0.42071
C    -0.05367  -0.87146   2.20254
C     0.38687   0.46378   2.33252
C     1.61118   0.59965   1.65396
C     1.95576  -0.66312   1.11845
C     0.92369  -1.56857   1.44666
C    -1.27731  -1.45499   2.83492
C     1.64879  -0.06895  -1.79811
C     1.67291   1.20846  -1.21294
C     0.38240   1.76760  -1.38411
C    -0.42259   0.85659  -2.13358
C     0.37046  -0.27458  -2.38485
C     0.52879  -1.40288  -3.37151
C     1.96421  -1.08610  -3.84894
C     2.56990  -1.08102  -2.42784
C     2.16376  -2.49138  -1.95218
C     0.78827  -2.72020  -2.61611
H    -0.10238   1.23142   2.91660
H     2.24605   1.47553   1.68186
H     2.90949  -0.91433   0.67363
H     0.92536  -2.63908   1.27724
H    -2.12925  -0.78674   2.69891
H    -1.11784  -1.58892   3.90681
H    -1.51439  -2.42202   2.39342
H     2.53593   1.72739  -0.81809
H     0.09625   2.78028  -1.12470
H    -1.41954   1.05740  -2.50892
H    -0.24279  -1.47053  -4.13567
H     2.38135  -1.86203  -4.49008
H     2.04362  -0.11887  -4.34345
H     3.63568  -0.86919  -2.35133
H     2.89407  -3.22344  -2.29876
H     2.10591  -2.55702  -0.86633
H     0.82996  -3.54459  -3.32829
H     0.00526  -2.93145  -1.89058
O    -1.28334   0.94790   0.42075
