61

Pd    0.00000   0.00000   0.00000
Cl    0.71874  -1.25246  -1.78356
P     0.84444  -1.64748   1.36406
O     1.44105  -2.84840   0.50960
H     1.36616  -2.62643  -0.44782
C     2.37294  -1.10663   2.32424
C    -0.48113  -2.54982   2.35278
C    -1.67855  -2.49046   1.39422
H    -2.51556  -3.06781   1.78440
H    -1.40847  -2.89952   0.41538
H    -2.00759  -1.44932   1.27408
C     3.15237  -0.34868   1.24099
H     2.54874   0.49705   0.87515
H     3.39234  -1.00374   0.40191
H     4.08402   0.04793   1.64184
C    -0.09002  -3.99898   2.62266
H     0.78720  -4.05424   3.26223
H     0.12983  -4.52277   1.69597
H    -0.91122  -4.51087   3.12268
C     2.06232  -0.14458   3.46471
H     1.61580  -0.65625   4.31191
H     1.38523   0.64140   3.13793
H     2.98491   0.32479   3.80505
C     3.16889  -2.30431   2.82876
H     4.14895  -1.97749   3.17391
H     3.30828  -3.03854   2.03880
H     2.66004  -2.78259   3.66281
C    -0.83624  -1.84085   3.65406
H    -1.77929  -2.22950   4.03727
H    -0.94967  -0.77053   3.49769
H    -0.07402  -2.00786   4.41103
P    -0.84384   1.64992  -1.36315
O    -1.44017   2.85054  -0.50808
H    -1.36501   2.62786   0.44922
C    -2.37213   1.10824  -2.32307
C     0.48230   2.55147  -2.35171
C     1.67973   2.49197  -1.39316
H     2.51680   3.06921  -1.78336
H     1.40969   2.90107  -0.41430
H     2.00863   1.45079  -1.27304
C    -3.15166   0.35068  -1.23961
H    -2.54811  -0.49496  -0.87344
H    -3.39170   1.00601  -0.40077
H    -4.08328  -0.04603  -1.64045
C     0.09110   4.00058  -2.62153
H    -0.78613   4.05585  -3.26109
H    -0.12871   4.52439  -1.69484
H     0.91234   4.51236  -3.12158
C    -2.06161   0.14592  -3.46335
H    -1.61480   0.65729  -4.31057
H    -1.38480  -0.64019  -3.13637
H    -2.98425  -0.32330  -3.80374
C    -3.16764   2.30603  -2.82788
H    -4.14775   1.97926  -3.17290
H    -3.30685   3.04051  -2.03812
H    -2.65869   2.78394  -3.66210
C     0.83722   1.84245  -3.65302
H     1.78025   2.23106  -4.03634
H     0.95062   0.77214  -3.49667
H     0.07492   2.00948  -4.40991
O    -0.51475   0.90066   1.28310
