53

Pd    0.00000   0.00000   0.00000
Cl   -1.89797   1.23491   0.38518
N     0.98810   1.64402   0.32207
N    -0.97593  -1.68102  -0.01845
C     1.08299   2.69428  -0.40786
C     1.50086   3.98814   0.15291
C     1.06631   4.36927   1.42282
C     1.46463   5.57805   1.96137
C     2.31015   6.41220   1.24808
C     2.74798   6.03936  -0.01301
C     2.34223   4.83876  -0.56389
C     0.80307   2.60655  -1.84698
C     1.18024   1.46619  -2.56361
C     1.01204   1.43092  -3.93634
C     0.42583   2.49849  -4.59798
C     0.00902   3.61123  -3.88477
C     0.20967   3.67555  -2.51908
C    -1.17443  -2.49765  -0.98713
C    -1.57120  -3.89381  -0.74966
C    -1.02336  -4.60065   0.32130
C    -1.40091  -5.90870   0.55846
C    -2.33743  -6.52103  -0.25853
C    -2.88797  -5.82456  -1.32287
C    -2.50444  -4.52109  -1.57478
C    -1.03718  -2.02865  -2.37213
C    -0.54443  -2.88012  -3.36142
C    -0.47616  -2.45316  -4.67384
C    -0.92786  -1.18932  -5.01896
C    -1.41568  -0.33682  -4.04106
C    -1.44920  -0.73729  -2.71724
H     1.25663   1.77564   1.30485
H    -1.14796  -2.06934   0.91683
H     0.38135   3.73485   1.96765
H     1.11345   5.87099   2.93938
H     2.62450   7.35367   1.67278
H     3.40725   6.68853  -0.56958
H     2.68957   4.54219  -1.54248
H     1.67392   0.63998  -2.05846
H     1.34623   0.56720  -4.49069
H     0.29433   2.46437  -5.66949
H    -0.46137   4.43769  -4.39659
H    -0.10706   4.54569  -1.96348
H    -0.26951  -4.13557   0.94091
H    -0.96246  -6.45236   1.38176
H    -2.63518  -7.54118  -0.06835
H    -3.61833  -6.30066  -1.95983
H    -2.93915  -3.97367  -2.39794
H    -0.20073  -3.86790  -3.09262
H    -0.08235  -3.11351  -5.43215
H    -0.90058  -0.86985  -6.05033
H    -1.77822   0.64384  -4.30901
H    -1.86784  -0.07497  -1.96309
O     1.36987  -0.90823  -0.14517
