37

Zn    0.00000   0.00000   0.00000
Cl    0.02171  -0.55404   2.17534
N     0.50796  -3.74143   0.04063
C     0.66738  -4.86976  -0.77552
C    -0.29704  -5.87892  -0.82296
H    -1.18853  -5.82109  -0.21871
C    -0.11898  -6.99409  -1.61927
H    -0.88034  -7.76010  -1.63145
C     1.02295  -7.14058  -2.38695
H     1.15734  -8.01213  -3.00815
C     1.98820  -6.15136  -2.34380
H     2.88556  -6.24361  -2.93754
C     1.81385  -5.02967  -1.55437
H     2.57414  -4.26778  -1.56612
C    -0.80607  -3.24804   0.34608
H    -0.73124  -2.50523   1.14769
H    -1.47064  -4.05453   0.66957
C     1.64682  -3.06899   0.59154
H     2.40700  -3.80583   0.87257
H     1.32072  -2.51234   1.47974
N    -1.42677  -2.60032  -0.79291
N    -1.30257  -1.28912  -1.00314
C    -2.13742  -3.16981  -1.78019
H    -2.34315  -4.22066  -1.79640
C    -2.49116  -2.17505  -2.66461
H    -3.06520  -2.27272  -3.56204
C    -1.93841  -1.01169  -2.12971
H    -1.97191  -0.00537  -2.49774
N     2.31124  -2.11618  -0.28918
N     1.72304  -0.99632  -0.71423
C     3.57720  -2.18111  -0.73820
H     4.23092  -2.99055  -0.47920
C     3.80793  -1.06062  -1.50388
H     4.70867  -0.79129  -2.01421
C     2.60915  -0.35036  -1.45742
H     2.34973   0.58253  -1.91798
O    -0.04847   1.46981  -0.74821
