43

Rh    0.00000   0.00000   0.00000
O     1.38011   3.99755  -0.32640
O    -2.25113   0.81352   1.78892
O    -0.68747  -2.85434  -0.57175
N     1.91060   2.30959   0.92429
C     0.85595   1.85976   0.14671
C     0.55494   2.95550  -0.64487
C     2.20063   3.57764   0.60888
C     2.60484   1.54627   1.95557
H     3.14115   2.28011   2.56977
C     3.58550   0.57582   1.30280
H     3.03837  -0.12812   0.67610
H     4.12498   0.02512   2.06791
H     4.30210   1.09657   0.67152
C     1.61965   0.79400   2.84266
H     0.85930   1.46363   3.23932
H     2.15717   0.34510   3.67317
H     1.13181  -0.00537   2.26639
C     3.17398   4.50406   1.16197
C     2.78823   5.84205   1.29296
H     1.79026   6.13374   1.00312
C     3.66828   6.77648   1.79999
H     3.35666   7.80482   1.90174
C     4.94639   6.39588   2.17780
H     5.63330   7.12640   2.57672
C     5.34413   5.07778   2.02854
H     6.34558   4.78129   2.30112
C     4.47118   4.13374   1.51992
H     4.81568   3.12406   1.36667
C    -0.44124   3.16533  -1.67740
C    -1.15983   2.09482  -2.21287
H    -0.95331   1.07692  -1.86101
C    -2.10797   2.31363  -3.19194
H    -2.65725   1.47893  -3.60074
C    -2.35119   3.59702  -3.65682
H    -3.09265   3.76414  -4.42371
C    -1.63575   4.66397  -3.13828
H    -1.81868   5.66492  -3.50072
C    -0.68729   4.45405  -2.15681
H    -0.13119   5.28755  -1.75379
C    -1.38319   0.48725   1.10899
C    -0.52006  -1.75751  -0.30263
O     1.22381  -0.38937  -1.03594
