27

Pt    0.00000   0.00000   0.00000
Se    1.50497   0.17325   1.87281
Cl    1.46319  -1.25682  -1.14390
C     0.38311   1.51660   2.81572
H    -0.16513   0.95393   3.57525
H     1.04974   2.22342   3.31282
C     3.95064   4.29021   3.11676
H     3.72902   5.33814   3.25435
C    -0.58130   2.23233   1.87489
H    -1.24709   2.87590   2.46790
H    -0.02150   2.87110   1.18546
C     2.77544   1.40884   0.97750
H     3.42027   0.73522   0.40885
H     2.20611   2.02762   0.27973
C     3.25081   3.55797   2.17280
H     2.49417   4.04230   1.57091
C     3.53045   2.21031   1.97775
C     5.21089   2.33627   3.69829
H     5.97501   1.85800   4.29227
C     4.93076   3.68150   3.88082
H     5.47599   4.25315   4.61642
N    -1.33695   1.26465   1.08036
H    -1.90330   1.70702   0.35352
H    -1.95844   0.70786   1.66652
C     4.51358   1.60560   2.75568
H     4.72397   0.55496   2.61125
O    -1.06104   0.09292  -1.26018
