38

Ni    0.00000   0.00000   0.00000
Cl    0.65889  -2.01462   0.54836
O    -0.69485   2.03577  -0.49016
N     1.70268   0.55161   0.28198
N    -0.22283   0.73653   2.04193
N     0.73511  -0.11118  -2.05920
C     2.05225   1.02700   1.48176
C     3.31230   1.57827   1.69226
C     4.21298   1.62049   0.64100
C     3.84761   1.08980  -0.58475
C     2.57322   0.55196  -0.73318
C     1.02296   0.89260   2.51791
C     1.30228   0.85334   3.88085
C     0.26003   0.65132   4.76898
C    -1.02354   0.49159   4.27043
C    -1.21420   0.54252   2.89802
C     2.07535  -0.07439  -1.96231
C     2.90167  -0.66197  -2.91495
C     2.32185  -1.30657  -3.99397
C     0.93891  -1.34821  -4.08487
C     0.18898  -0.73392  -3.09457
C    -0.45799   2.86418  -1.60557
H     3.57503   1.98059   2.65723
H     5.19084   2.05682   0.77722
H     4.53119   1.10547  -1.41836
H     2.31570   0.94969   4.23706
H     0.44918   0.60963   5.83142
H    -1.86072   0.32928   4.93036
H    -2.19641   0.41742   2.46117
H     3.97353  -0.64236  -2.79713
H     2.93911  -1.77851  -4.74383
H     0.44982  -1.84679  -4.90636
H    -0.89324  -0.74346  -3.12085
H    -1.14084   3.72047  -1.59814
H     0.56641   3.23068  -1.53181
H    -0.57214   2.32292  -2.54954
H    -1.60167   1.67628  -0.54883
O    -1.56311  -0.45611  -0.26676
