63

Rh    0.00000   0.00000   0.00000
C     1.18803  -1.58676   0.23415
N     1.86991  -2.33084  -0.66237
N     1.41945  -2.05361   1.46621
C     2.46679  -3.05668   1.48041
H     3.39908  -2.61867   1.86221
H     2.19773  -3.90153   2.11401
C     2.56285  -3.44272   0.00427
H     3.60534  -3.49677  -0.31986
C     2.37157  -1.83414  -1.95438
C     2.71889  -2.98840  -2.90140
H     3.07649  -2.56909  -3.83870
H     1.83868  -3.58901  -3.11823
H     3.50350  -3.62877  -2.50849
C     1.32684  -0.97001  -2.65986
H     1.04431  -0.11768  -2.02732
H     0.44268  -1.55523  -2.90016
H     1.74846  -0.58273  -3.58373
C     3.62424  -0.98824  -1.68558
H     3.37196  -0.16395  -1.02132
H     4.01116  -0.58129  -2.61568
H     4.40937  -1.58146  -1.22123
C     1.88502  -4.79629  -0.31445
H     1.89025  -4.91412  -1.39985
C     0.42996  -4.84207   0.14383
H    -0.06085  -5.72215  -0.26566
H    -0.10458  -3.95914  -0.19932
H     0.35802  -4.89534   1.22709
C     2.68547  -5.95463   0.27777
H     2.70433  -5.91204   1.36418
H     3.71216  -5.93659  -0.08176
H     2.23835  -6.90180  -0.01404
C     1.14400  -1.31004   2.67504
H     2.04618  -0.74429   2.94674
H     0.35252  -0.58400   2.44157
C     0.72948  -2.18297   3.85855
H     0.64923  -1.53543   4.73362
H     1.51164  -2.91549   4.06959
C    -0.59803  -2.89567   3.63692
H    -1.40214  -2.17336   3.52260
H    -0.83270  -3.53682   4.48381
H    -0.56114  -3.50958   2.74061
C    -1.75720  -1.06543   0.49846
H    -1.52575  -2.02023   0.96934
C    -1.65236  -1.00410  -0.89313
H    -1.32132  -1.91264  -1.39356
C    -2.51439  -0.10345  -1.75396
H    -2.68153  -0.58645  -2.71930
H    -3.49157   0.00897  -1.28046
C    -1.87465   1.27780  -1.99819
H    -1.29294   1.24074  -2.92241
H    -2.65656   2.03261  -2.13903
C    -0.95635   1.71762  -0.88054
H    -0.15667   2.38754  -1.19929
C    -1.28670   1.69865   0.45752
H    -0.71335   2.33279   1.13300
C    -2.64702   1.27990   0.96865
H    -2.88976   1.86376   1.85927
H    -3.39871   1.51670   0.21397
C    -2.69820  -0.21697   1.32496
H    -3.72047  -0.59686   1.21052
H    -2.42964  -0.33704   2.37822
O     1.36093   0.86685   0.34488
