48

Zn    0.00000   0.00000   0.00000
Cl   -0.04719  -1.56457  -1.54494
O    -1.11637   5.91857  -3.58085
N    -1.69021  -0.20124   1.38385
N    -1.38439   3.21805   0.59114
N    -0.64239   1.69123  -0.96603
N    -1.01697   3.93510  -1.58169
C    -2.61979  -1.24767   0.93876
H    -2.79469  -1.16511  -0.13334
H    -3.57694  -1.14128   1.46953
C    -1.93501  -2.56304   1.31803
H    -1.43121  -2.98883   0.45301
H    -2.66010  -3.28802   1.68451
C    -0.91644  -2.16586   2.40119
H    -0.99742  -2.77617   3.29853
H     0.10039  -2.25425   2.01751
C    -1.22940  -0.70066   2.68304
H    -2.03718  -0.60898   3.42424
H    -0.35807  -0.14672   3.02792
C    -2.34180   1.09940   1.47942
H    -3.06905   1.09067   2.30648
H    -2.89007   1.27038   0.55012
C    -1.33125   2.23739   1.67870
H    -0.32267   1.81236   1.71441
C    -1.55339   3.08300   2.93250
H    -1.11160   2.62108   3.81158
H    -2.62030   3.23551   3.10828
C    -0.89134   4.40279   2.55664
H    -1.19504   5.23271   3.19055
H     0.19241   4.29831   2.59764
C    -1.35203   4.57574   1.11205
H    -2.35715   5.01517   1.09753
H    -0.68483   5.19880   0.51518
C    -1.00587   2.89781  -0.65957
C    -2.25382   4.64447  -1.86718
H    -2.86125   4.73306  -0.96987
H    -2.82910   4.09457  -2.62818
C    -1.90753   6.02751  -2.42330
H    -2.81202   6.56126  -2.71861
H    -1.37419   6.60839  -1.65491
C     0.07046   5.20893  -3.31579
H     0.67423   5.75244  -2.57352
H     0.61457   5.15926  -4.25958
C    -0.22005   3.79901  -2.79050
H    -0.75262   3.23092  -3.56843
H     0.72096   3.30174  -2.55127
H    -0.51108   1.56332  -1.96216
O     1.26797   0.38642   0.98257
