51

Mo    0.00000   0.00000   0.00000
S     0.77308  -2.35971   0.90074
Cl   -1.76522   0.91326  -1.31720
S     1.89450   0.53941   1.71314
S    -1.00298  -2.13826  -1.46849
S     0.42595   2.54233   0.26562
N    -1.80135  -3.08524   0.93085
C    -1.70144  -3.35548   2.35482
C    -0.77531  -2.59021   0.25688
C     1.68647   2.19374   1.36482
C    -3.08768  -3.25868   0.28650
N     2.45005   3.13887   1.89506
C     2.94258   2.60491   4.26056
C     2.19915   4.53401   1.58567
C     3.48671   2.78615   2.84680
C     1.06882   5.12402   2.42382
N     0.19932  -2.63740  -2.32899
N     1.13739  -0.23004  -1.29905
C    -3.87897  -1.95546   0.22245
C    -1.21311  -4.77726   2.60577
C     3.08245  -0.34045  -2.68825
C     3.80767  -1.03096  -3.62819
C     3.32436  -2.23879  -4.12489
C     2.12514  -2.74840  -3.68138
C     1.35480  -2.08033  -2.72344
C     1.85448  -0.82958  -2.21511
H    -2.68551  -3.19700   2.79945
H    -0.99982  -2.64065   2.79425
H    -3.64133  -4.00984   0.85423
H    -2.91535  -3.63687  -0.72750
H     3.74160   2.27117   4.91607
H     2.54021   3.53628   4.64893
H     2.15848   1.85294   4.26167
H     1.93225   4.60034   0.52692
H     3.12495   5.08756   1.75270
H     4.24331   3.57264   2.82787
H     3.94064   1.84807   2.51475
H     0.87467   6.14344   2.10352
H     0.16213   4.54124   2.28712
H     1.32646   5.13400   3.47914
H    -4.84906  -2.13547  -0.23212
H    -4.02986  -1.55244   1.22137
H    -3.35399  -1.20884  -0.37257
H    -1.15322  -4.96177   3.67433
H    -1.89115  -5.50282   2.16224
H    -0.22497  -4.90936   2.17273
H     3.43004   0.59849  -2.28200
H     4.74831  -0.63571  -3.97984
H     3.89276  -2.78147  -4.86521
H     1.74305  -3.68238  -4.06276
O    -1.03240   0.02908   1.28678
