28

Au    0.00000   0.00000   0.00000
P     1.52244  -0.20840  -1.64050
C     2.82405  -1.43939  -1.36512
C     3.84538  -1.60046  -2.29712
C     4.82784  -2.54516  -2.07248
C     4.79310  -3.32699  -0.92691
C     3.77536  -3.16569  -0.00178
C     2.78722  -2.22044  -0.21706
C     2.31573   1.30258  -2.16450
C     1.94807   1.61778  -3.42597
C     1.12547   0.59376  -4.07048
C     0.88160  -0.47844  -3.28540
C     2.33183   2.86741  -4.13815
C     0.63840   0.75489  -5.46794
H     3.85909  -0.98458  -3.18582
H     5.62380  -2.67436  -2.79093
H     5.56379  -4.06375  -0.75646
H     3.75020  -3.77489   0.88921
H     1.98648  -2.08117   0.49808
H     2.89863   1.92425  -1.50498
H     0.28160  -1.33225  -3.55398
H     2.88396   2.63377  -5.04801
H     2.94961   3.49763  -3.50406
H     1.44082   3.42506  -4.42458
H     1.47747   0.87298  -6.15292
H     0.01614   1.64551  -5.54850
H     0.05400  -0.10865  -5.77385
O    -1.08622   0.11551   1.23664
