61

Pd    0.00000   0.00000   0.00000
Br    1.37539   1.16026  -1.64574
N     1.09131   1.73860   2.05630
N    -0.62286   2.67822   1.07962
N     0.00169  -1.67815  -1.19480
N    -0.59591  -1.76006  -2.39002
C     0.14232   1.57707   1.11939
C     0.94134   2.97690   2.64523
C     1.63725   3.63579   3.64791
H     2.48437   3.18989   4.14255
C     1.20952   4.90054   4.00238
H     1.73322   5.43593   4.77938
C     0.11910   5.49932   3.37947
H    -0.18464   6.48927   3.68343
C    -0.58332   4.85448   2.37993
H    -1.42471   5.33545   1.90882
C    -0.16471   3.58387   2.01436
C     2.09537   0.71877   2.32563
H     1.86062  -0.11651   1.62724
C     3.49074   1.23875   1.99046
H     3.51931   1.58311   0.95801
H     4.21744   0.43928   2.10863
H     3.77349   2.06302   2.63923
C     1.96637   0.19458   3.75279
H     2.17577   0.97198   4.48210
H     2.66569  -0.62307   3.90587
H     0.95758  -0.17799   3.92039
C    -1.73239   2.80943   0.14999
H    -1.73997   1.86077  -0.42612
C    -3.05393   2.92877   0.90375
H    -3.19039   2.06550   1.55236
H    -3.87713   2.96668   0.19565
H    -3.08184   3.82777   1.51312
C    -1.48821   3.95181  -0.83149
H    -1.47860   4.91497  -0.32910
H    -2.27215   3.95690  -1.58395
H    -0.53320   3.80882  -1.33308
C     0.81781  -2.71201  -1.07715
C     0.71819  -3.50397  -2.22930
H     1.24157  -4.41572  -2.43143
C    -0.18694  -2.86658  -3.05390
C     1.68068  -2.85888   0.12683
H     2.40221  -2.03297   0.16105
H     2.22696  -3.79728   0.09431
H     1.07047  -2.83234   1.03393
C    -0.69983  -3.25723  -4.39109
H    -1.70738  -2.87612  -4.54596
H    -0.71044  -4.34135  -4.47449
H    -0.05734  -2.86653  -5.18063
C    -1.47768  -0.73341  -2.78254
C    -2.45062  -0.30661  -1.87778
H    -2.58389  -0.82198  -0.93005
C    -3.30246   0.72622  -2.23724
H    -4.07179   1.04256  -1.54855
C    -3.17412   1.34062  -3.47205
H    -3.83560   2.14960  -3.74348
C    -2.19788   0.91863  -4.35922
H    -2.08869   1.40494  -5.31636
C    -1.34639  -0.11754  -4.02099
H    -0.56343  -0.42551  -4.69547
O    -0.90159  -0.70025   1.19134
