62

Pd    0.00000   0.00000   0.00000
Br    1.34005  -1.14376  -1.68491
O    -0.54492   3.08454  -4.32863
N     1.13485  -1.77411   2.00026
N    -0.62488  -2.67629   1.06942
N    -0.00499   1.69296  -1.19284
N    -0.59208   1.77053  -2.40181
C     0.15920  -1.58835   1.09607
C     0.98218  -3.01513   2.58284
C     1.69662  -3.69416   3.55868
H     2.56525  -3.26648   4.03161
C     1.25846  -4.95469   3.91568
H     1.79636  -5.50543   4.67200
C     0.13938  -5.52955   3.32181
H    -0.17201  -6.51675   3.62699
C    -0.58239  -4.86406   2.34992
H    -1.44671  -5.32602   1.90194
C    -0.15313  -3.59782   1.98162
C     2.16456  -0.77378   2.24516
H     1.92529   0.06872   1.55710
C     2.08546  -0.25533   3.67812
H     1.08698   0.12922   3.87763
H     2.79969   0.55239   3.81428
H     2.30640  -1.03932   4.39692
C     3.54007  -1.31679   1.86739
H     3.82310  -2.15471   2.49826
H     4.28525  -0.53317   1.97661
H     3.53462  -1.64818   0.83038
C    -1.76480  -2.78035   0.17312
H    -1.77136  -1.82854  -0.39781
C    -1.57287  -3.92102  -0.82182
H    -0.63182  -3.79220  -1.35280
H    -2.38030  -3.90723  -1.54892
H    -1.56481  -4.88741  -0.32562
C    -3.06443  -2.87857   0.96698
H    -3.09482  -3.78462   1.56580
H    -3.91036  -2.88749   0.28518
H    -3.15959  -2.02071   1.63005
C     0.88693   2.66274  -1.11251
C     0.86842   3.42025  -2.29462
H     1.47359   4.27355  -2.51798
C    -0.07568   2.81185  -3.09739
C     1.76272   2.79071   0.08426
H     1.17382   2.66071   0.99697
H     2.24318   3.76491   0.10631
H     2.54071   2.01906   0.04940
C    -0.00193   4.23367  -4.94373
H    -0.20176   5.12969  -4.34920
H    -0.49630   4.31576  -5.90927
H     1.07693   4.12792  -5.08972
C    -1.52667   0.79549  -2.79858
C    -2.44536   0.32549  -1.86001
H    -2.50865   0.77872  -0.87285
C    -3.34241  -0.66445  -2.23010
H    -4.07091  -1.01434  -1.51349
C    -3.31558  -1.18989  -3.51104
H    -4.01247  -1.96566  -3.79089
C    -2.40016  -0.71508  -4.43573
H    -2.37623  -1.12572  -5.43353
C    -1.50261   0.27709  -4.08661
H    -0.77792   0.63971  -4.79719
O    -0.85638   0.69187   1.22900
