52

Zr    0.00000   0.00000   0.00000
Cl    1.01912  -1.79712   1.07749
C    -1.81059   1.52853   0.54004
H    -1.75308   2.59892   0.35396
C    -1.80901  -0.42992   1.71807
H    -1.77104  -1.13807   2.53772
C    -2.32176   0.52132  -0.33245
C    -2.28340  -0.69507   0.40924
H    -2.66658  -1.65146   0.06855
C    -1.51898   0.94422   1.80018
H    -1.21387   1.48059   2.69158
C     0.28975   1.11447  -2.14353
H     0.28076   2.19674  -2.25591
C     1.14502  -1.00025  -2.02816
H     1.84019  -1.83159  -2.03724
N    -2.59129   2.12309  -2.40027
H    -1.81952   2.59274  -1.92431
C    -3.82734   2.76042  -1.92791
H    -3.96879   2.50582  -0.87720
H    -4.66022   2.34758  -2.49672
C    -2.41420   2.36244  -3.83913
H    -3.27532   1.94205  -4.36030
H    -1.51976   1.83174  -4.16827
C    -0.81639   0.21712  -2.24898
C    -2.30336   3.85616  -4.12367
H    -1.41273   4.25768  -3.63382
H    -2.18970   4.01521  -5.19605
C    -3.54343   4.58510  -3.61027
H    -3.43305   5.66034  -3.75396
H    -4.41664   4.26062  -4.17958
C     1.48804   0.36335  -2.03027
H     2.49303   0.76969  -2.03554
C    -3.75754   4.26967  -2.13130
H    -4.68057   4.72900  -1.77745
H    -2.93475   4.68431  -1.54333
C    -0.26437  -1.09259  -2.14466
H    -0.81281  -2.02195  -2.25917
B    -2.37608   0.56631  -1.95122
C    -3.44420  -0.44974  -2.64633
H    -3.53022  -0.28093  -3.72231
H    -3.03844  -1.45876  -2.54942
C    -4.85459  -0.48608  -2.04519
H    -5.42245   0.39759  -2.34253
H    -4.78507  -0.47944  -0.95657
C    -5.63503  -1.72287  -2.48815
H    -5.68852  -1.74626  -3.57951
H    -5.10140  -2.61976  -2.16636
C    -7.04533  -1.74366  -1.91118
H    -7.57740  -2.63832  -2.22643
H    -7.60929  -0.87482  -2.24505
H    -7.01039  -1.72987  -0.82402
O     1.02060   1.13582   0.62513
