46

P    -2.09332   0.49816   0.16519
C    -2.75895   0.59112   1.86796
H    -2.52041  -0.33705   2.38368
H    -3.83803   0.73780   1.83949
H    -2.29051   1.41989   2.39602
C    -2.79684   2.03603  -0.56149
H    -2.58717   2.05935  -1.62944
H    -2.32941   2.90510  -0.10304
H    -3.87352   2.07571  -0.40224
Ni    0.00000   0.00000   0.00000
P     2.06032  -0.40927   0.48830
O     0.03385  -0.69635  -2.11574
C     0.33883   0.27741  -2.80929
C     0.41796   1.63261  -0.79147
N     0.49745   0.14348  -4.14363
H     0.74773   0.94274  -4.70097
C     0.60975   2.85037  -0.13800
H     0.52253   2.90203   0.94087
C     0.54457   1.60488  -2.19389
C     1.02383   3.96194  -2.22806
H     1.25352   4.86343  -2.77768
C     0.84281   2.77043  -2.89967
H     0.93309   2.76439  -3.97853
C     0.32180  -1.11652  -4.82126
H    -0.48596  -1.05407  -5.55382
H     0.06828  -1.85913  -4.06607
H     1.24181  -1.41383  -5.32914
C     0.90987   3.99953  -0.84559
H     1.05362   4.93435  -0.32094
C     2.63599  -2.03033  -0.13183
H     1.99843  -2.80752   0.28468
H     3.67386  -2.19715   0.15551
H     2.54206  -2.04764  -1.21637
C     2.44794  -0.53712   2.27268
H     2.29577   0.43054   2.74763
H     3.48159  -0.85337   2.40771
H     1.77250  -1.26236   2.72220
C     3.43504   0.67277  -0.08443
H     3.30442   1.67529   0.31809
H     3.41604   0.73620  -1.17103
H     4.39525   0.27312   0.23865
C    -3.18950  -0.75522  -0.59030
H    -2.95540  -0.83662  -1.65042
H    -4.23372  -0.47190  -0.45945
H    -2.99628  -1.71579  -0.11695
O    -0.36656  -1.38607   0.81667
