56

Ni    0.00000   0.00000   0.00000
P    -2.16590  -0.06112  -0.04633
P     2.16578  -0.03291   0.07197
O     0.01990   4.52333   0.67136
N    -0.03228   2.38149   1.44554
C    -2.95902  -0.03590   1.60247
H    -2.75974   0.91703   2.09102
H    -2.54459  -0.83801   2.21002
H    -4.03436  -0.17143   1.49313
C    -2.83597  -1.60111  -0.76772
H    -2.42384  -2.45062  -0.22600
H    -2.54035  -1.67092  -1.81357
H    -3.92310  -1.60502  -0.69354
C    -3.15207   1.21203  -0.92387
H    -4.21526   1.00066  -0.82148
H    -2.88230   1.22597  -1.97789
H    -2.93531   2.19210  -0.50272
C     3.18243   1.24625  -0.76082
H     4.24109   1.04685  -0.60250
H     2.93392   2.22601  -0.35698
H     2.96724   1.25159  -1.82743
C     2.89686  -1.56969  -0.59585
H     2.66513  -1.65077  -1.65685
H     2.46377  -2.42031  -0.07272
H     3.97758  -1.55896  -0.45686
C     2.86419   0.01792   1.76238
H     2.42497  -0.78249   2.35458
H     2.62743   0.97341   2.22859
H     3.94537  -0.10650   1.71516
C     0.02558   1.40552  -1.24413
C     0.04941   1.02844  -2.58579
C     0.06984   1.97388  -3.59749
C     0.06684   3.32335  -3.28246
C     0.04417   3.71217  -1.95981
C     0.02320   2.77040  -0.92942
C     0.00346   3.32294   0.46095
C    -0.05642   2.54103   2.82982
C    -0.05167   3.78063   3.46317
C    -0.07951   3.84462   4.84331
C    -0.11259   2.69636   5.62486
C    -0.11549   1.46399   4.98266
C    -0.08828   1.38292   3.60559
C    -0.12311   2.78841   7.12103
H    -0.50664   1.87224   7.56388
H    -0.73587   3.62429   7.45236
H     0.88939   2.94775   7.49419
H    -0.09201   0.41587   3.11922
H     0.04238   4.75633  -1.68224
H    -0.07670   4.81271   5.32371
H     0.08259   4.06504  -4.06731
H    -0.14070   0.55502   5.56652
H     0.05235  -0.02588  -2.84946
H    -0.02780   4.68021   2.87159
H    -0.04489   1.39079   1.14027
H     0.08809   1.65525  -4.63056
O    -0.01852  -1.31863   0.99165
