42

Re    0.00000   0.00000   0.00000
Cl   -1.88149  -1.04625  -0.83932
N    -0.76485   1.30469   0.85541
C    -1.51831   2.39424   1.31727
C    -1.73975   2.26824   2.83283
C    -2.86400   2.34521   0.56838
C    -0.76591   3.69257   0.97966
C     0.99888  -2.40658  -0.53114
C     1.92124  -1.50579  -1.05390
C     2.27574  -0.55843  -0.01198
C     1.64093  -0.98234   1.20501
C     0.74784  -2.05122   0.85378
C     0.34907  -3.56280  -1.20897
C     2.49844  -1.46510  -2.42643
C     3.41173   0.40689  -0.13248
C     2.02712  -0.57240   2.59649
C    -0.00734  -2.92737   1.80166
H    -2.35022   3.09394   3.18613
H    -2.24262   1.33045   3.05301
H    -0.78421   2.28414   3.35075
H    -3.48783   3.18245   0.86636
H    -2.67935   2.38731  -0.50237
H    -3.37330   1.41121   0.79057
H    -1.37163   4.55399   1.24473
H     0.17312   3.73188   1.52515
H    -0.55013   3.71463  -0.08532
H     0.79339  -3.74869  -2.18378
H     0.44237  -4.46189  -0.59943
H    -0.71565  -3.36056  -1.35208
H     3.58584  -1.40209  -2.37943
H     2.21952  -2.34739  -2.99727
H     2.13143  -0.58431  -2.95954
H     3.41303   1.11727   0.69134
H     4.36280  -0.12986  -0.12812
H     3.33740   0.96197  -1.06635
H     1.18901  -0.67053   3.28340
H     2.83697  -1.21380   2.94997
H     2.37269   0.45894   2.62173
H    -0.96319  -3.21631   1.36687
H     0.56242  -3.83570   2.00895
H    -0.19678  -2.41662   2.74328
O     0.16237   0.72698  -1.47229
