53

Zn    0.00000   0.00000   0.00000
N    -0.65896   2.02789   0.21038
N    -2.11033  -0.22872  -0.02531
C     0.07653   3.10764   0.33329
C    -0.39303   4.27792   0.93798
C    -1.67676   4.30752   1.42642
C    -2.48420   3.16389   1.30328
C    -3.82489   3.09767   1.78079
C    -4.55876   1.96616   1.65100
C    -4.01251   0.80269   1.03650
C    -4.72201  -0.40211   0.89339
C    -4.10761  -1.47695   0.29744
C    -2.78790  -1.34561  -0.14758
C    -2.68831   0.83412   0.54965
C    -1.91401   2.03295   0.68034
O     0.40379  -1.42798  -1.38383
O     1.61238   0.36851  -1.19456
N     3.86495   0.50838  -2.54039
Cl    6.51885   4.78266  -1.71788
C     1.39565  -0.75314  -1.74775
C     2.26741  -1.25687  -2.82657
C     1.85477  -2.40406  -3.50443
C     2.58188  -2.91352  -4.55728
C     3.73152  -2.25019  -4.96994
C     4.16606  -1.12176  -4.31176
C     3.46913  -0.61566  -3.20547
C     5.10815   1.10891  -2.48141
C     6.29538   0.39919  -2.65806
C     7.51422   1.04326  -2.57839
C     7.57392   2.39689  -2.30447
C     6.39315   3.09184  -2.09163
C     5.14993   2.48299  -2.17212
C     3.86900   3.22297  -1.93305
H     3.15107   0.85113  -1.89529
H     1.07976   3.04475  -0.06233
H     0.25526   5.13586   1.01836
H    -2.07367   5.19092   1.90535
H    -4.23958   3.97474   2.25530
H    -5.57315   1.91909   2.01863
H    -5.73724  -0.46840   1.25719
H    -4.62262  -2.41648   0.17518
H    -2.26270  -2.16642  -0.61442
H     0.94049  -2.87577  -3.17866
H     2.25334  -3.80478  -5.06901
H     4.28862  -2.61569  -5.82051
H     5.03726  -0.59450  -4.66793
H     6.25895  -0.66585  -2.82297
H     8.42708   0.48472  -2.71795
H     8.52018   2.90953  -2.24050
H     4.05199   4.28919  -1.83896
H     3.40122   2.86934  -1.01287
H     3.17320   3.05411  -2.75401
O     0.25752  -0.29713   1.60247
