43

Pt    0.00000   0.00000   0.00000
F    -1.77876  -4.77904  -0.60175
N    -1.03334  -1.35767   0.91661
N     1.61047  -0.74265   1.46155
C    -1.63672   0.75412  -0.85393
C    -1.90857   2.10120  -0.64396
H    -1.17097   2.72462  -0.14989
C    -3.09348   2.69348  -1.06858
C    -4.03235   1.90307  -1.71515
H    -4.96692   2.33430  -2.04499
C    -3.77265   0.56799  -1.95451
H    -4.51143  -0.03842  -2.46057
C    -2.58343  -0.02329  -1.52923
C    -2.35889  -1.43382  -1.90270
C    -2.56771  -1.77123  -3.24069
H    -2.77697  -0.97596  -3.93954
C    -2.50636  -3.07542  -3.68940
H    -2.66513  -3.30026  -4.73268
C    -2.25308  -4.10229  -2.79371
H    -2.21224  -5.13463  -3.10179
C    -2.04349  -3.77429  -1.47409
C    -2.05708  -2.45960  -0.98774
C    -1.74296  -2.30322   0.42017
H    -2.04547  -3.13207   1.06457
C    -0.60154  -1.45025   2.29276
H    -1.12326  -2.25459   2.82904
H    -0.80864  -0.49960   2.79445
C     0.91206  -1.73357   2.28264
H     1.29792  -1.75028   3.31213
H     1.06394  -2.72440   1.84364
C     2.82307  -1.28575   0.86418
H     3.26197  -0.52873   0.21533
H     2.58084  -2.15805   0.25702
H     3.55898  -1.57367   1.62726
C     1.93600   0.44950   2.23993
H     2.38877   1.19008   1.58164
H     2.63641   0.21441   3.05368
H     1.03092   0.88165   2.66828
C    -3.33513   4.15132  -0.82019
H    -4.27157   4.47431  -1.26824
H    -2.52324   4.74361  -1.23884
H    -3.37442   4.35203   0.25006
O     1.04208   1.04156  -0.74279
