44

Hf    0.00000   0.00000   0.00000
Cl   -2.02366  -1.07509   0.07136
Cl    0.48472  -1.01547  -1.99076
Si   -2.09175   1.73461   2.37232
Si    3.09942   1.85675  -0.24223
C     0.52081   1.98316   1.15763
H     0.99016   2.02489   2.13239
C    -0.88342   1.98956   0.94406
C    -1.07162   2.09380  -0.47862
C    -2.22361   2.13872  -1.28584
H    -3.20351   2.12002  -0.83336
C    -2.07994   2.23390  -2.64821
H    -2.95710   2.27181  -3.27594
C    -0.81240   2.28738  -3.25130
H    -0.74892   2.36743  -4.32555
C     0.33675   2.23584  -2.50245
H     1.30815   2.28543  -2.97297
C     0.23612   2.13256  -1.10338
C     1.23159   2.03481  -0.06967
C    -3.89667   1.47529   1.83079
H    -3.98943   0.64383   1.13949
H    -4.30789   2.36321   1.36060
H    -4.51389   1.25378   2.69576
C    -1.39651   0.19335   3.26883
H    -1.37540  -0.67390   2.60671
H    -2.00061  -0.07539   4.13021
H    -0.38377   0.36043   3.63041
C    -1.96779   3.25192   3.52407
H    -2.57633   3.10622   4.40985
H    -2.31743   4.15326   3.03133
H    -0.94906   3.43263   3.85189
C     3.43211   0.20330  -1.13234
H     2.97668  -0.62800  -0.59100
H     4.49605  -0.00275  -1.20577
H     3.03160   0.19629  -2.14289
C     3.82842   3.33167  -1.20511
H     4.90739   3.24162  -1.27069
H     3.60639   4.27371  -0.71408
H     3.44303   3.39218  -2.21740
C     3.82346   1.77747   1.52068
H     3.43980   0.91732   2.06331
H     3.59696   2.66998   2.09582
H     4.90359   1.68315   1.48398
O     0.87990  -0.96295   1.01045
