56

Ru    0.00000   0.00000   0.00000
P    -1.93651  -1.03722   0.73346
P     0.90472  -2.12824  -0.12087
Cl   -1.06517   2.07556  -0.43856
Cl   -0.95033  -0.92815  -1.94187
O     0.91378   0.88652   2.51803
N     0.57164   0.54716   1.46724
C    -0.46009  -3.28745   0.16850
H    -0.26835  -4.34501   0.01900
C    -1.65306  -2.82155   0.52737
H    -2.50275  -3.47174   0.70597
C     1.73776  -2.75729  -1.59211
C     1.01654  -3.44259  -2.56616
H    -0.04422  -3.60903  -2.43821
C     1.66032  -3.87653  -3.70995
H     1.10246  -4.40259  -4.47038
C     3.01097  -3.62344  -3.88788
H     3.50603  -3.95436  -4.78877
C     3.72538  -2.93693  -2.91893
H     4.77511  -2.73063  -3.06443
C     3.09479  -2.50215  -1.76839
H     3.64172  -1.95030  -1.01792
C     2.08412  -2.46944   1.21909
C     2.98465  -1.45686   1.54362
H     2.96105  -0.52474   0.98911
C     3.90324  -1.64841   2.55919
H     4.59950  -0.86216   2.80858
C     3.92217  -2.84441   3.25917
H     4.63380  -2.99134   4.05775
C     3.02831  -3.85261   2.93709
H     3.04441  -4.78468   3.48265
C     2.11076  -3.67207   1.91725
H     1.41606  -4.46193   1.67102
C    -2.08792  -0.89787   2.53932
C    -3.07783  -0.12241   3.13218
H    -3.83991   0.33630   2.51804
C    -3.07132   0.06472   4.50335
H    -3.83852   0.66862   4.96420
C    -2.07899  -0.50839   5.28115
H    -2.07567  -0.35483   6.34971
C    -1.07983  -1.26668   4.68955
H    -0.29696  -1.70058   5.29342
C    -1.07788  -1.45533   3.32150
H    -0.28853  -2.03075   2.84703
C    -3.61115  -0.78963   0.10588
C    -3.88249   0.16815  -0.86283
H    -3.08447   0.79079  -1.24324
C    -5.18069   0.32491  -1.31814
H    -5.39537   1.06873  -2.07017
C    -6.19797  -0.46649  -0.81224
H    -7.20863  -0.34384  -1.17261
C    -5.92651  -1.41360   0.16446
H    -6.72343  -2.02264   0.56568
C    -4.63626  -1.57736   0.62946
H    -4.42368  -2.29957   1.40733
O     1.33745   0.42803  -0.86632
