65

Cu    0.00000   0.00000   0.00000
C    -3.88216  -1.53294   1.33995
H    -3.61627  -2.10681   0.45208
H    -4.87061  -1.85052   1.67454
C    -2.82995  -1.84671   2.45899
H    -3.20047  -2.67243   3.06886
H    -1.90418  -2.16517   1.97503
C    -2.55114  -0.62488   3.28686
C    -1.38935   0.13100   3.08718
C    -1.40499   1.49813   3.35268
H    -0.55938   2.09811   3.04068
C    -2.52963   2.11103   3.87962
C    -3.52297   1.28354   4.39791
H    -4.35343   1.71395   4.93874
C    -3.53319  -0.06686   4.09885
H    -4.37856  -0.67014   4.39737
C    -2.76152   3.58054   3.66695
H    -1.93029   4.17466   4.05063
H    -3.66647   3.88035   4.19669
C    -2.92169   3.88847   2.13884
H    -3.60553   4.73251   2.02882
H    -1.95143   4.18044   1.73742
C    -3.42585   2.67009   1.40935
C    -4.62558   2.10000   1.81415
H    -5.32532   2.69537   2.38225
C    -4.87290   0.75348   1.63172
H    -5.77328   0.31635   2.03778
C    -3.90623  -0.06076   1.05267
C    -2.86978   0.56490   0.37291
H    -2.20921  -0.02354  -0.25257
C    -2.62265   1.92771   0.52265
C    -1.54919   2.55778  -0.25669
C    -1.75444   3.83346  -0.78986
H    -2.69208   4.33561  -0.60887
C    -0.77576   4.42200  -1.56657
H    -0.92612   5.40516  -1.98717
C     0.39624   3.71710  -1.80612
H     1.18710   4.13123  -2.41019
C     0.52193   2.45328  -1.26502
H     1.40249   1.85383  -1.44947
N    -0.41755   1.88610  -0.51125
P     0.03771  -0.47556   2.14993
C     0.39566  -2.15161   2.77578
C     0.12072  -2.56116   4.07582
H    -0.38185  -1.89215   4.76049
C     0.47934  -3.83393   4.47874
H     0.26530  -4.15769   5.48726
C     1.11291  -4.69410   3.59499
H     1.39154  -5.68624   3.91881
C     1.38377  -4.28703   2.29885
H     1.87059  -4.95969   1.60876
C     1.02470  -3.01678   1.88568
H     1.21248  -2.68702   0.87086
C     1.43817   0.38836   2.93883
C     2.51011   0.71989   2.11687
H     2.44675   0.49705   1.05847
C     3.63675   1.32078   2.64875
H     4.46723   1.57607   2.00710
C     3.69653   1.59319   4.00535
H     4.57413   2.06341   4.42398
C     2.63137   1.26134   4.82840
H     2.68165   1.47234   5.88689
C     1.50529   0.65635   4.30216
H     0.67504   0.40139   4.94532
O     0.58175  -0.93443  -1.22919
