66

Fe    0.00000   0.00000   0.00000
Br    1.34493  -1.00145  -1.49684
P    -1.58098   4.54511  -1.71901
P    -1.84636   1.88829  -1.96866
N     1.20841   1.12776   0.79749
N    -0.55648   1.69405  -0.97558
N    -2.62834   3.30672  -1.73227
C     1.08240   2.45276   0.50578
C     0.07601   2.77547  -0.44627
C    -0.14592   4.13006  -0.74380
C     0.62953   5.12121  -0.11140
H     0.42044   6.15633  -0.34612
C     1.63059   4.80105   0.75975
H     2.23140   5.57191   1.21700
C     1.88004   3.45056   1.10305
C     2.85903   3.03034   2.02236
H     3.49401   3.75944   2.50082
C     2.98107   1.68532   2.29783
H     3.71950   1.32755   2.99784
C     2.14346   0.76995   1.67347
H     2.22071  -0.29198   1.87977
C    -2.43546   5.95525  -1.00134
C    -3.40282   5.72351  -0.03159
H    -3.64764   4.70434   0.22971
C    -4.03613   6.79500   0.57063
H    -4.79129   6.62248   1.32273
C    -3.69766   8.09049   0.21120
H    -4.19144   8.92642   0.68392
C    -2.72799   8.31972  -0.75262
H    -2.46838   9.33095  -1.02914
C    -2.09168   7.25305  -1.36113
H    -1.33777   7.41773  -2.11978
C    -1.09227   4.99287  -3.41059
C     0.21167   4.84112  -3.85924
H     0.98541   4.54643  -3.16284
C     0.50425   5.06794  -5.19264
H     1.51654   4.94862  -5.54853
C    -0.50088   5.43988  -6.06977
H    -0.26908   5.61122  -7.11030
C    -1.80421   5.58979  -5.62019
H    -2.58439   5.87856  -6.30872
C    -2.10296   5.36178  -4.29089
H    -3.11404   5.45787  -3.91675
C    -1.28627   1.74767  -3.69073
C    -2.22813   1.95864  -4.69006
H    -3.25815   2.13722  -4.41089
C    -1.83581   1.94610  -6.01438
H    -2.56290   2.11105  -6.79584
C    -0.50631   1.71986  -6.33787
H    -0.20132   1.70857  -7.37384
C     0.43000   1.50549  -5.34058
H     1.46276   1.32100  -5.59438
C     0.04428   1.52420  -4.01168
H     0.76578   1.35453  -3.22559
C    -2.95293   0.52437  -1.61114
C    -2.47198  -0.76000  -1.85300
H    -1.52458  -0.88823  -2.36475
C    -3.22764  -1.85220  -1.46647
H    -2.86016  -2.85261  -1.64224
C    -4.45164  -1.65736  -0.84373
H    -5.03312  -2.51090  -0.52887
C    -4.92991  -0.37693  -0.61663
H    -5.88229  -0.23584  -0.12828
C    -4.17933   0.72197  -0.99607
H    -4.52012   1.73032  -0.81420
O    -1.16137  -0.03937   1.17140
