43

Fe    0.00000   0.00000   0.00000
S     0.84583  -1.20368   1.72466
N     2.96143  -2.25616   0.51055
N     3.37406  -0.86790   2.34113
C     2.51223  -1.44474   1.48675
C     2.95088   0.23128   3.17726
C     4.65695  -1.43487   2.68950
C     2.01521  -3.06763  -0.21945
C     4.18461  -1.98245  -0.21830
H     3.81509   0.85915   3.39029
H     2.51673  -0.12016   4.11729
H     2.20286   0.82761   2.65436
H     4.71328  -1.52231   3.77743
H     5.47913  -0.79826   2.35338
H     4.76453  -2.42668   2.25971
H     2.56040  -3.85977  -0.72886
H     1.46497  -2.47495  -0.96036
H     1.29867  -3.50793   0.47249
H     3.93684  -1.81457  -1.26842
H     4.87514  -2.82574  -0.14980
H     4.66106  -1.07990   0.15073
I    -2.03762   1.00158   1.02617
S    -0.84660  -1.20576  -1.72292
C    -2.51294  -1.44582  -1.48304
N    -2.96132  -2.25710  -0.50636
N    -3.37534  -0.86852  -2.33648
C    -2.01442  -3.06804   0.22333
C    -4.18360  -1.98291   0.22386
C    -2.95254   0.23062  -3.17291
C    -4.65921  -1.43426  -2.68324
H    -2.55892  -3.86081   0.73249
H    -1.46481  -2.47503   0.96442
H    -1.29743  -3.50747  -0.46866
H    -3.93445  -1.81423   1.27352
H    -4.87409  -2.82634   0.15691
H    -4.66063  -1.08071  -0.14519
H    -3.81668   0.85895  -3.38490
H    -2.51957  -0.12091  -4.11345
H    -2.20368   0.82656  -2.65072
H    -4.71686  -1.52185  -3.77110
H    -5.48034  -0.79670  -2.34635
H    -4.76732  -2.42587  -2.25313
O     1.34958   0.66214  -0.68022
