52

Au    0.00000   0.00000   0.00000
P     1.35967   0.59265   1.69825
C     1.80619   2.20646   2.41173
C     2.99134   2.84770   1.99335
C     3.58417   3.74671   2.86646
C     3.03599   4.07932   4.09638
C     1.77405   3.58563   4.37552
C     1.12087   2.67996   3.54774
C     3.66289   2.67156   0.63001
C     2.73815   2.05668  -0.42501
C     4.92554   1.81226   0.77963
C     4.06648   4.05757   0.08937
C     3.79829   4.99610   5.03759
C     3.98071   6.36350   4.36403
C     5.17009   4.37437   5.33522
C     3.07294   5.20818   6.36900
C    -0.31360   2.31501   3.93541
C    -1.06431   3.59966   4.33777
C    -1.11574   1.69982   2.78475
C    -0.30058   1.35272   5.13070
H     2.64143   0.07455   1.61720
H     1.11396  -0.06711   2.89102
H     4.52523   4.18920   2.58986
H     1.28491   3.89257   5.28142
H     2.69182   0.97025  -0.36173
H     3.11265   2.28741  -1.42051
H     1.73195   2.47057  -0.35102
H     5.42587   1.71591  -0.18112
H     4.68057   0.81464   1.13937
H     5.61778   2.26318   1.48668
H     4.88048   4.50381   0.65198
H     3.21630   4.73555   0.11204
H     4.40426   3.96437  -0.94005
H     4.55376   6.28077   3.44471
H     3.01252   6.79774   4.12388
H     4.50658   7.04108   5.03278
H     5.76465   4.26679   4.43238
H     5.04856   3.39038   5.78326
H     5.72170   5.00380   6.02977
H     2.90374   4.26132   6.87695
H     3.68349   5.83247   7.01773
H     2.12097   5.71328   6.22280
H    -0.70008   4.02260   5.26853
H    -2.11925   3.37708   4.47929
H    -0.97375   4.35086   3.55643
H    -0.91565   2.22001   1.84750
H    -0.92418   0.63491   2.65994
H    -2.18057   1.79482   2.98876
H     0.21015   0.42473   4.88017
H    -1.31936   1.11320   5.42631
H     0.21023   1.79877   5.98063
O    -0.98704  -0.46818  -1.23655
