35

Ni    0.00000   0.00000   0.00000
Cl   -1.29590  -1.72778  -0.83677
O    -2.01031   1.00350  -1.67117
O     2.95023   0.59670  -0.11685
O     1.52269   2.71911   1.50286
O    -2.73921  -0.52865   1.41178
N    -0.69262   1.00596  -1.32958
N     1.71001   0.76572  -0.67079
N     0.44192   1.84612   1.51562
N    -1.69972   0.35803   1.37436
C    -0.30890   2.72718  -3.03540
C     0.11757   1.78600  -1.95991
C     1.50892   1.68290  -1.54923
C     2.56846   2.57798  -2.09684
C    -0.59894   3.44463   3.06022
C    -0.55015   2.19378   2.24465
C    -1.67174   1.25762   2.28732
C    -2.70972   1.37516   3.35453
H    -2.31157   0.08729  -1.42323
H    -1.36637   2.58977  -3.24536
H     0.26554   2.55201  -3.94311
H    -0.14070   3.75564  -2.71890
H     2.56997   2.54879  -3.18431
H     3.54117   2.26160  -1.72840
H     2.38635   3.60550  -1.78422
H     2.79328  -0.16000   0.51654
H     2.25380   2.21109   1.11252
H    -0.31640   3.22219   4.08890
H    -1.59788   3.87153   3.05751
H     0.11186   4.16515   2.66336
H    -2.26999   1.68363   4.29850
H    -3.20226   0.41261   3.47402
H    -3.46394   2.10533   3.06135
H    -2.51845  -1.18335   0.68976
O     0.85822  -0.92482   1.06332
