57

Nb    0.00000   0.00000   0.00000
F    -1.75218  -0.64637  -0.45192
F     0.58046  -0.06570  -1.80888
C     2.01809  -1.41992   0.49767
C     1.34027  -2.28563  -0.40608
C     0.09929  -2.63627   0.17300
C     0.01257  -2.01276   1.45632
C     1.21795  -1.27873   1.67238
C     3.41891  -0.91805   0.33075
C     1.90922  -2.75582  -1.70638
C    -0.92364  -3.58617  -0.36437
C    -1.05527  -2.30829   2.46738
C     1.70379  -0.69548   2.96807
O    -0.90665   1.79531  -0.81886
C    -1.89540   2.44289  -0.39317
C    -2.46233   2.29564   0.89107
C    -1.93970   1.43624   1.85147
O    -0.95143   0.65717   1.66203
C    -2.43988   3.47934  -1.31032
C    -1.58062   4.01334  -2.27112
C    -2.03057   4.97441  -3.15534
C    -3.34745   5.40277  -3.10160
C    -4.21268   4.86137  -2.16443
C    -3.76508   3.90658  -1.26972
C    -2.52151   1.43937   3.22015
C    -3.88989   1.56522   3.44190
C    -4.38838   1.53465   4.73166
C    -3.53022   1.38704   5.80948
C    -2.16720   1.25968   5.59577
C    -1.66598   1.27776   4.30803
H     4.13330  -1.65843   0.69838
H     3.62747  -0.72231  -0.71980
H     3.55946   0.00604   0.88816
H     2.92090  -3.13361  -1.55757
H     1.29963  -3.54455  -2.13988
H     1.95361  -1.92948  -2.41759
H    -1.04445  -4.43217   0.31419
H    -1.88741  -3.08586  -0.46079
H    -0.63731  -3.95784  -1.34463
H    -0.83670  -3.24749   2.98098
H    -1.12517  -1.51535   3.21070
H    -2.02315  -2.40231   1.97591
H     2.54807  -1.27829   3.34152
H     2.03640   0.33380   2.82604
H     0.91661  -0.71095   3.71874
H    -3.27109   2.94695   1.17662
H    -0.56017   3.65949  -2.30285
H    -1.35701   5.38771  -3.89113
H    -3.70255   6.15162  -3.79412
H    -5.24334   5.18306  -2.13350
H    -4.45627   3.47398  -0.56303
H    -4.56371   1.65821   2.60402
H    -5.45168   1.62407   4.89803
H    -3.92402   1.36829   6.81477
H    -1.49627   1.14487   6.43431
H    -0.60450   1.18921   4.12538
O     1.13728   1.12048   0.41669
