60

Ru    0.00000   0.00000   0.00000
Cl   -1.18046   1.24865  -1.87831
Cl    1.56428  -0.41713  -1.69794
O    -0.74314  -2.19827  -0.20758
N     0.35307   2.84192  -0.54862
N     1.53344   2.43653   1.19299
C     0.70396   1.83990   0.31259
C     0.97459   4.04830  -0.20562
C     1.71923   3.76390   0.90105
H     2.35346   4.38789   1.49515
C    -0.48920   2.77606  -1.61905
C    -0.73378   3.87103  -2.38108
H    -1.40111   3.80372  -3.22242
C     0.72985   5.19983  -0.99352
H     1.21726   6.12115  -0.72122
C    -0.10504   5.10637  -2.05849
H    -0.31073   5.96410  -2.67764
C     2.20424   1.85948   2.30476
C     3.55992   1.59080   2.16187
H     4.03226   1.76736   1.20736
C     4.27986   1.08033   3.22499
H     5.32963   0.85871   3.11045
C     2.29523   1.14201   4.57151
H     1.81605   0.96854   5.52241
C     1.54208   1.64107   3.51372
C     3.64178   0.86018   4.43408
H     4.19620   0.46714   5.27335
C     0.07368   1.93705   3.68110
H    -0.36153   2.14533   2.69915
C    -0.67361   0.73021   4.24791
H    -0.35155   0.49123   5.25825
H    -0.51110  -0.13487   3.60797
H    -1.73969   0.93961   4.26413
C    -0.11094   3.17034   4.56910
H     0.29379   2.99302   5.56305
H    -1.16828   3.40432   4.66316
H     0.39679   4.03262   4.14034
C     0.94757  -0.88049   1.38854
H     1.73855  -0.47825   2.01990
C     0.63809  -2.23240   1.67882
C    -0.25946  -2.93168   0.82886
C    -0.57457  -4.25573   1.09979
H    -1.25154  -4.81527   0.47378
C    -0.02471  -4.88743   2.20470
H    -0.28773  -5.91531   2.40485
C    -1.39644  -2.87420  -1.28522
H    -2.15691  -3.54701  -0.86423
C    -2.09666  -1.82130  -2.13121
H    -2.68102  -1.16017  -1.49113
H    -2.76789  -2.29928  -2.83996
H    -1.35698  -1.24919  -2.68878
C     1.18683  -2.91018   2.78078
H     1.87001  -2.37308   3.42303
C    -0.36766  -3.64576  -2.10853
H     0.41219  -2.95872  -2.43484
H    -0.84245  -4.08554  -2.98133
H     0.09585  -4.43571  -1.52172
C     0.85567  -4.21975   3.04396
H     1.27894  -4.72879   3.89654
O    -1.42239   0.30346   0.77925
