60

Ru    0.00000   0.00000   0.00000
Cl   -1.49072  -0.30898   1.74317
N    -1.50761   2.49697  -1.10651
N    -0.32801   2.78701   0.65625
O     0.73084  -2.12919   0.26109
C    -0.68233   1.84358  -0.26577
C    -2.16877   1.96596  -2.24609
C    -3.52680   1.69691  -2.12788
H    -4.01144   1.85020  -1.17544
C    -2.23184   1.30450  -4.53070
H    -1.74002   1.15199  -5.47888
C    -1.69052   3.80439  -0.73043
H    -2.32174   4.46787  -1.28329
C    -1.49118   1.77525  -3.45097
C     0.50487   2.65679   1.72118
C     0.76143   3.68038   2.56298
H     1.42677   3.54152   3.39696
C    -3.58099   1.02514  -4.41889
H    -4.12533   0.65547  -5.27518
C    -0.94559   4.01570   0.39321
C    -0.69503   5.10725   1.26263
H    -1.17782   6.04789   1.05607
C    -4.23461   1.21778  -3.21329
H    -5.28669   0.99774  -3.11851
C     0.13565   4.93822   2.32105
H     0.34122   5.75081   2.99829
C    -0.02035   2.07120  -3.59773
H     0.39595   2.31441  -2.61567
C     0.73650   0.84501  -4.10855
H     0.40944   0.55470  -5.10360
H     0.58422   0.01061  -3.42592
H     1.80057   1.06261  -4.14126
C     0.18232   3.27308  -4.52431
H     1.24001   3.51451  -4.59199
H    -0.34760   4.14502  -4.14485
H    -0.18635   3.05651  -5.52425
F     1.05045   1.43813   1.85500
C     0.23459  -2.92612  -0.71652
C    -0.65195  -2.26165  -1.60726
C     0.53235  -4.26765  -0.90121
H     1.20896  -4.78887  -0.24218
C    -0.03841  -4.96040  -1.95829
H     0.20306  -6.00395  -2.09349
C    -1.21509  -2.99853  -2.66208
H    -1.89037  -2.49386  -3.33786
C    -0.91171  -4.33077  -2.83390
H    -1.35140  -4.88715  -3.64780
C    -0.93135  -0.88983  -1.38960
H    -1.68100  -0.46787  -2.05859
C     1.41816  -2.69562   1.37756
H     2.20687  -3.36423   1.00215
C     2.05394  -1.53069   2.12222
H     2.63659  -0.91888   1.43265
H     2.71166  -1.89556   2.90646
H     1.27199  -0.92370   2.57775
C     0.43454  -3.44754   2.27178
H    -0.36741  -2.77096   2.56418
H     0.94171  -3.80258   3.16476
H    -0.00525  -4.29687   1.75382
O     1.46073   0.37931  -0.66700
