33

Pt    0.00000   0.00000   0.00000
Cl   -1.89611  -1.07957   0.53526
C    -0.99740   1.93104   0.04643
H    -1.84486   1.82887   0.72020
C    -0.04513   3.05934   0.30914
H    -0.31259   3.52182   1.26220
C     2.04798   3.02439  -2.13675
H     3.04850   2.94555  -2.56434
C     1.47108   2.67536   0.36960
H     1.85402   2.97305   1.34864
C    -1.07325   1.42795  -1.23913
H    -1.97984   0.92932  -1.57454
C     1.24430   4.82347  -0.56372
H     1.30483   5.22196   0.44957
H     1.47655   5.63301  -1.24779
C     2.13309   3.58714  -0.69859
H     3.17446   3.77842  -0.43580
C    -0.19739   3.59295  -2.22634
H    -1.08004   3.99086  -2.72898
C     1.78918   1.22532   0.15757
H     2.43228   0.74501   0.89135
C     1.31717   1.65778  -2.23109
H     1.58582   1.19894  -3.18560
C     1.71293   0.72238  -1.12790
H     2.29498  -0.15409  -1.40380
C    -0.11230   4.15569  -0.78816
H    -0.95411   4.82367  -0.60057
C    -0.19901   2.04170  -2.29163
H    -0.58100   1.74759  -3.27211
C     1.10127   3.87780  -2.98064
H     1.04176   3.48294  -3.99542
H     1.36975   4.92659  -3.05310
O     0.81476  -1.35176   0.48106
