45

Pt    0.00000   0.00000   0.00000
Cl    2.32994   0.16186  -0.30841
O     0.06917   2.72142   0.95458
O     0.52423  -2.18822   1.80577
N     0.02870   1.57997   1.39854
N     0.26692  -0.99077   1.84413
C     0.08025  -0.22029   2.87174
C    -0.04909   1.17656   2.62965
C    -0.01307  -0.81798   4.24822
H     0.75367  -0.37660   4.88932
H     0.18589  -1.88711   4.15415
C    -1.39821  -0.59604   4.86319
H    -2.16322  -0.78943   4.10915
H    -1.53013  -1.32821   5.66203
C    -1.59373   0.79798   5.45477
H    -2.54050   0.80471   5.99878
H    -0.79963   0.99682   6.17890
C    -1.63134   1.92596   4.42631
H    -1.91583   2.84683   4.93886
H    -2.39507   1.71740   3.67504
C    -0.28962   2.17266   3.72993
H    -0.28140   3.16636   3.27830
H     0.52339   2.11454   4.45750
N    -0.02959  -1.58086  -1.39771
O    -0.07103  -2.72210  -0.95338
C     0.04875  -1.17805  -2.62901
C    -0.07975   0.21874  -2.87186
N    -0.26599   0.98981  -1.84463
O    -0.52237   2.18749  -1.80673
C     0.01391   0.81569  -4.24865
H    -0.75297   0.37428  -4.88957
H    -0.18462   1.88495  -4.15514
C     1.39899   0.59286  -4.86341
H     2.16402   0.78643  -4.10944
H     1.53122   1.32451  -5.66269
C     1.59400  -0.80158  -5.45415
H     2.54083  -0.80902  -5.99804
H     0.79991  -1.00052  -6.17827
C     1.63103  -1.92895  -4.42501
H     1.91530  -2.85022  -4.93697
H     2.39471  -1.72022  -3.67372
C     0.28910  -2.17480  -3.72872
H     0.28042  -3.16826  -3.27659
H    -0.52377  -2.11675  -4.45646
O    -1.63190  -0.11295   0.21594
