49

Pt    0.00000   0.00000   0.00000
Cl    1.73089   0.22529  -1.60639
O     2.90206  -1.44729   2.74432
O     2.55120   0.87257   8.09034
N     1.25255  -0.50668   1.48212
N     2.40114  -0.62845   3.77442
N     3.03405   0.07417   7.07510
C     2.23912  -1.30963   1.59210
C     2.99103  -0.72317   4.90046
C     2.44160   0.14344   5.94692
C     4.14201  -1.62615   5.18181
C     1.27205   1.00960   5.61712
C     2.76947  -2.16834   0.50901
H     1.05431  -0.00822   2.35989
H     3.12481   0.67981   8.84625
H     4.93698  -1.43676   4.46140
H     3.82556  -2.66090   5.05178
H     4.50450  -1.47496   6.19170
H     1.52822   1.68186   4.80123
H     0.43661   0.39455   5.29002
H     0.98100   1.58779   6.48980
H     3.06927  -1.54458  -0.33326
H     3.61070  -2.75072   0.87235
H     1.97724  -2.82324   0.14581
Cl   -1.73169  -0.22444   1.60553
Cl   -0.37793  -2.24561  -0.66437
N    -1.25225   0.50661  -1.48249
C    -2.23887   1.30952  -1.59247
O    -2.90185   1.44719  -2.74468
N    -2.40096   0.62841  -3.77483
C    -2.99088   0.72316  -4.90086
C    -2.44145  -0.14343  -5.94733
N    -3.03390  -0.07416  -7.07551
O    -2.55104  -0.87257  -8.09075
H    -3.12464  -0.67982  -8.84667
C    -1.27189  -1.00958  -5.61754
H    -1.52805  -1.68183  -4.80164
H    -0.43646  -0.39452  -5.29044
H    -0.98084  -1.58777  -6.49022
C    -4.14187   1.62614  -5.18220
H    -4.93682   1.43679  -4.46175
H    -3.82541   2.66089  -5.05224
H    -4.50439   1.47490  -6.19207
C    -2.76924   2.16818  -0.50934
H    -3.06899   1.54438   0.33293
H    -3.61049   2.75055  -0.87267
H    -1.97703   2.82312  -0.14615
H    -1.05402   0.00815  -2.36026
O     0.26288   1.56215   0.46161
