53

Hg    0.00000   0.00000   0.00000
I     1.71319   0.92739   1.74021
N     1.50013  -0.69826  -1.68914
N     2.49854  -1.93992  -3.19691
N     5.14953  -3.62400  -4.46958
N     4.24194  -4.41254  -2.59464
H     3.55291  -4.58592  -1.88173
N    -1.36771   1.92368  -1.00782
N    -2.95831   3.01066  -2.10536
H    -3.69824   3.18225  -2.76649
N    -1.31074   0.30703  -3.59320
C     0.53328   0.32535  -4.75841
H     1.42827   0.59059  -5.28425
C     1.48453  -1.84757  -2.33036
H     0.75428  -2.62101  -2.19070
C     2.58394  -0.02033  -2.16659
H     2.83536   0.95592  -1.80195
C     3.21094  -0.78139  -3.10455
H     4.08464  -0.60601  -3.69663
C     2.77754  -3.03408  -4.09378
H     2.84402  -2.65533  -5.11655
H     1.94979  -3.74536  -4.03154
C     4.07381  -3.68932  -3.74632
C     6.10284  -4.34227  -3.79083
C     7.42942  -4.60850  -4.11119
H     7.85988  -4.22495  -5.02180
C     8.15695  -5.37438  -3.22563
H     9.18976  -5.60149  -3.44380
C     7.59488  -5.86957  -2.04639
H     8.20534  -6.46521  -1.38447
C     6.28100  -5.61688  -1.70783
H     5.84789  -5.99953  -0.79605
C     5.54378  -4.84898  -2.59407
C    -0.34263   1.13343  -4.09611
H    -0.35393   2.19231  -3.93711
N     0.12234  -0.96803  -4.67899
C    -0.97954  -0.94637  -3.98166
H    -1.57009  -1.80625  -3.73501
C    -2.50187   0.70520  -2.88687
H    -2.86259  -0.15597  -2.31325
H    -3.28358   0.98846  -3.60559
C    -2.25114   1.85956  -1.97457
C    -1.48996   3.18829  -0.46203
C    -0.80542   3.80967   0.57746
H    -0.01957   3.30778   1.11540
C    -1.16789   5.10029   0.89844
H    -0.65342   5.60376   1.70229
C    -2.18188   5.77590   0.21634
H    -2.43078   6.78484   0.50762
C    -2.86943   5.18124  -0.82119
H    -3.65284   5.69640  -1.35553
C    -2.50605   3.88493  -1.14799
O    -1.14176  -1.18586  -0.11237
