33

Cd    0.00000   0.00000   0.00000
O    -1.61329  -0.26068  -2.16853
O    -0.72687   2.25716  -1.20257
C    -1.81666   0.95053  -2.86336
C    -1.96778   2.08657  -1.85900
C    -0.68232   3.37180  -0.33852
C    -1.44837  -1.35833  -3.04204
H    -0.95623   1.15731  -3.51747
H    -2.72754   0.88116  -3.47631
H    -2.75576   1.84108  -1.13243
H    -2.24025   3.00942  -2.39039
H    -0.81875   4.29999  -0.91259
H    -1.46929   3.29765   0.42674
H    -1.33558  -2.24616  -2.42030
H    -0.55827  -1.23303  -3.66971
H    -2.32871  -1.47461  -3.68402
I     2.14058  -0.21409  -1.58591
O     1.61492  -0.26091   2.16751
O     0.72844   2.25696   1.20159
C     1.81890   0.95038   2.86204
C     1.96962   2.08633   1.85754
C     0.68360   3.37183   0.33784
C     1.45036  -1.35830   3.04143
H     0.95888   1.15737   3.51664
H     2.73012   0.88091   3.47448
H     2.75734   1.84079   1.13069
H     2.24234   3.00920   2.38876
H     0.81988   4.29988   0.91219
H     1.47056   3.29808  -0.42747
H     1.33595  -2.24617   2.42006
H     0.56125  -1.23215   3.67033
H     2.33153  -1.47511   3.68219
O    -1.32144  -0.13407   0.97894
