59

Pt    0.00000   0.00000   0.00000
P    -0.41133   0.53134  -2.20943
N     0.08951  -0.34249  -3.57338
N     0.29639   2.01057  -2.56609
N    -2.06371   0.52326  -2.50254
C     1.51671  -0.37853  -3.84208
C    -0.51294  -1.64753  -3.78505
C     1.03941   2.76076  -1.57863
C     0.15331   2.69345  -3.83183
C    -3.02201   0.34504  -1.43437
C    -2.66297   0.90834  -3.76078
H     1.96689   0.57384  -3.57183
H     1.67010  -0.55513  -4.90938
H     2.01341  -1.17360  -3.27887
H    -1.55066  -1.63080  -3.46053
H     0.01470  -2.42916  -3.23172
H    -0.47516  -1.88443  -4.85113
H     1.18258   2.14345  -0.68614
H     0.51403   3.67546  -1.28736
H     2.02430   3.03242  -1.97367
H    -0.19979   1.99674  -4.58701
H     1.12205   3.08872  -4.15420
H    -0.54830   3.53147  -3.75784
H    -2.50664  -0.02784  -0.54409
H    -3.77683  -0.39031  -1.73128
H    -3.52674   1.28142  -1.17661
H    -1.93272   0.81067  -4.55964
H    -3.03435   1.93862  -3.73442
H    -3.50683   0.24799  -3.98321
Cl    1.11204  -1.90382  -0.77113
P     0.40736  -0.53411   2.20984
N    -0.09333   0.33978   3.57383
N    -0.30057  -2.01324   2.56654
N     2.05974  -0.52643   2.50293
C    -1.52055   0.37621   3.84237
C     0.50946   1.64465   3.78562
C    -1.04304  -2.76368   1.57886
C    -0.15806  -2.69587   3.83246
C     3.01811  -0.34754   1.43494
C     2.65894  -0.91192   3.76106
H    -1.97099  -0.57596   3.57182
H    -1.67402   0.55259   4.90970
H    -2.01692   1.17157   3.27930
H     1.54722   1.62763   3.46126
H    -0.01788   2.42645   3.23225
H     0.47161   1.88153   4.85171
H    -1.18578  -2.14646   0.68622
H    -0.51741  -3.67835   1.28796
H    -2.02808  -3.03538   1.97347
H     0.19477  -1.99904   4.58765
H    -1.12696  -3.09103   4.15450
H     0.54354  -3.53394   3.75892
H     2.50285   0.02553   0.54471
H     3.77272   0.38790   1.73220
H     3.52313  -1.28369   1.17695
H     1.92864  -0.81464   4.55991
H     3.03042  -1.94215   3.73431
H     3.50273  -0.25158   3.98382
O    -0.78880   1.34278   0.54521
