47

C     2.30927  -0.75512   1.48881
H     2.95039  -1.50380   1.97381
H     2.33722   0.15503   2.09193
C     2.82258  -0.44209   0.09119
H     3.85252  -0.06386   0.13210
H     2.81998  -1.35777  -0.50365
C     0.22125  -0.89283   2.65950
H     0.77097  -1.24465   3.54346
H    -0.75447  -1.38647   2.61661
C    -0.03687   0.58150   2.70983
C    -0.19022   1.26639   3.90131
H    -0.07700   0.73941   4.83649
C    -0.51131   2.61563   3.87537
H    -0.64611   3.16889   4.79155
C    -0.66961   3.22080   2.63767
H    -0.93961   4.26118   2.55580
C    -0.48473   2.47112   1.49299
H    -0.62427   2.89727   0.51119
C     1.95168   0.33023  -2.00789
H     2.97407   0.29809  -2.40554
H     1.41626   1.17382  -2.45491
C     1.17709  -0.90691  -2.34045
C     1.43436  -1.66237  -3.46988
H     2.25149  -1.38716  -4.11922
C     0.62333  -2.74932  -3.76134
H     0.79886  -3.34952  -4.64035
C    -0.42568  -3.02561  -2.89743
H    -1.10231  -3.84350  -3.08545
C    -0.60615  -2.23250  -1.78167
H    -1.42349  -2.39900  -1.09690
C     0.83447  -2.64362   1.15869
H    -0.21257  -2.89678   1.00870
H     1.23582  -3.22860   1.99506
H     1.38394  -2.89792   0.25556
C     2.28032   1.90834  -0.22796
H     1.50927   2.54181  -0.67700
H     2.24182   2.04008   0.85648
C     3.59119   2.30629  -0.70964
C     4.68540   2.59129  -1.10367
H     5.63187   2.87413  -1.45758
N     0.92063  -1.21526   1.41619
N     1.93331   0.52467  -0.55721
N    -0.16119   1.17490   1.50954
N     0.18172  -1.19591  -1.48444
Cl   -0.82501   1.48354  -1.40161
Fe    0.00000   0.00000   0.00000
O    -1.48815  -0.58608   0.40549
