51

Cu    0.00000   0.00000   0.00000
O    -0.86310   0.93472   1.73591
N     0.95824  -1.11778  -1.29563
N     1.68589  -0.05873   1.09743
N    -0.76263  -1.85262   0.76932
N     1.55367  -2.20114  -0.82569
N     2.19470  -1.24418   1.37587
N     0.16890  -2.68106   1.19402
N    -2.85958   2.15914   1.47460
B     1.61462  -2.50043   0.68809
C     0.72734  -0.00088  -4.78331
C     0.50730  -0.24774  -5.99535
C     0.56815  -0.02814  -3.44742
C     1.08714  -1.07836  -2.63524
C     1.80272  -2.21404  -3.03844
C     2.07976  -2.91612  -1.86475
C     2.75791  -4.16135  -1.75526
C     4.24994  -5.02445  -3.62560
C     3.32130  -4.76269  -2.82432
C     3.44705   4.07697   2.72354
C     2.57018   3.21786   2.46224
C     1.97364   2.25958   1.72702
C     2.31430   0.88006   1.83038
C     3.28840   0.24831   2.61524
C     3.19298  -1.10873   2.29969
C     3.98467  -2.17298   2.81088
C     5.28800  -1.93308   4.98069
C     4.89335  -1.98604   3.79099
C    -4.27028  -1.61055   1.74284
C    -5.09679  -1.39428   2.65980
C    -3.12497  -1.45660   1.04996
C    -1.93220  -2.17362   1.35465
C    -1.72326  -3.26593   2.21055
C    -0.36625  -3.56993   2.08852
C     0.36433  -4.58462   2.76156
C    -0.80938  -6.53933   3.89121
C    -0.22688  -5.47006   3.59189
C    -1.84972   1.57523   1.67876
C    -3.87709   2.92480   1.72764
C    -4.68451   3.58668   2.37389
H     2.27164  -3.45022   0.90458
H    -0.02874   0.73496  -2.95364
H     2.07419  -2.48541  -4.03818
H     2.86429  -4.61755  -0.77987
H     1.23732   2.52389   0.97326
H     3.96885   0.70658   3.30305
H     3.81600  -3.17359   2.43392
H    -3.06016  -0.71799   0.25632
H    -2.44617  -3.76679   2.82068
H     1.42339  -4.68111   2.55804
O    -1.11009   0.86444  -0.86194
