33

W     0.00000   0.00000   0.00000
Cl    0.42090   2.26002  -0.47782
P     2.75592   0.45194   1.69907
P    -1.57200   0.80638   2.06196
O    -1.73205   0.18707   0.27040
O     0.22599  -0.55739  -1.55239
O     2.08145   0.03363   0.40440
O    -0.01897   0.67143   1.91212
C     4.54349   0.26491   1.40418
H     4.74565  -0.76965   1.13800
H     5.12026   0.53679   2.28122
H     4.82620   0.89936   0.56778
C     2.49443   2.21218   2.10831
H     2.57707   2.79193   1.18788
H     3.24724   2.52921   2.82362
H     1.50153   2.36933   2.52231
C     2.35708  -0.64880   3.09979
H     1.34722  -0.46648   3.45911
H     3.07084  -0.48317   3.90105
H     2.41348  -1.67969   2.74862
C    -2.31058   2.39060   1.42390
H    -1.57614   3.17818   1.59379
H    -3.20696   2.60898   1.99577
H    -2.54785   2.34100   0.36201
C    -1.52759   1.43143   3.85889
H    -1.03401   0.71286   4.50858
H    -2.53056   1.59439   4.24083
H    -0.98479   2.37072   3.93015
C    -2.48300  -0.74997   2.51975
H    -2.67188  -1.38944   1.65794
H    -3.42323  -0.46997   2.98461
H    -1.87156  -1.28588   3.24527
O     0.13753  -1.46945   0.73777
