45

Zn    0.00000   0.00000   0.00000
Cl    0.74536   1.61411  -1.32076
N    -1.17326  -1.46500  -1.06410
N     1.79534  -1.12403   0.41109
C     0.67977  -2.67484   1.85346
C    -0.08896  -3.08729  -4.74282
C    -1.63702  -2.97945  -2.89340
C    -0.83091  -1.99236  -2.26087
C     2.89347  -0.69770  -0.16990
C     3.06323  -2.92411   1.41453
C     0.34477  -1.56234  -2.91213
O     0.38859  -3.53038  -5.92802
C     1.84670  -2.21643   1.20587
C     0.72075  -3.77718   2.65102
O     1.82063  -5.57219   3.66359
C     0.70171  -2.09312  -4.11364
C    -2.28112  -1.85963  -0.47920
C    -1.24484  -3.51655  -4.13539
C     4.22198  -2.44111   0.77476
C    -2.81778  -3.38139  -2.23800
C     4.13533  -1.32549  -0.01396
C    -3.13988  -2.81693  -1.03305
C     1.92653  -4.49442   2.85347
C     3.07987  -4.06424   2.24186
C     2.97747  -6.32642   3.94143
H     2.65684  -7.12262   4.61074
H     3.39698  -6.76511   3.03066
H     3.73983  -5.71950   4.43915
C    -0.35007  -4.49814  -6.63666
H     2.79427   0.18391  -0.78861
H    -0.16080  -4.13265   3.16026
H     4.99978  -0.92160  -0.51608
H    -4.03728  -3.09326  -0.50310
H     1.59186  -1.76701  -4.62755
H    -2.50769  -1.39940   0.47303
H    -3.45272  -4.12628  -2.69644
H    -0.23323  -2.11547   1.72773
H    -1.88162  -4.26224  -4.58552
H     4.02097  -4.57405   2.37811
H     0.93327  -0.78448  -2.45297
H     5.16154  -2.95578   0.91790
H    -0.44212  -5.42762  -6.06611
H     0.21253  -4.68893  -7.54869
H    -1.34674  -4.12859  -6.89614
O    -0.90768   0.26311   1.35255
