60

N    -4.50942   0.46756   1.18187
H    -5.02507   1.37296   1.21766
N    -3.02196   1.79259   0.01895
H    -2.12500   1.84537  -0.51286
N    -4.89367   2.99432   0.75223
O    -4.49495  -1.77224   1.60697
C     2.07672  -0.33414  -0.61143
C     2.00324  -0.52804   0.80071
C     0.63784  -2.10821  -0.22306
C     1.23661  -1.32837  -1.24589
C     1.06038  -1.57798   1.05064
C     3.02440   0.57163  -1.32952
H     2.59073   0.93081  -2.26067
H     3.28348   1.43107  -0.71540
H     3.93976   0.02544  -1.56674
C     2.82732   0.18262   1.82276
H     2.36168   0.12966   2.80340
H     3.81340  -0.28319   1.87675
H     2.95516   1.23142   1.56248
C    -0.20884  -3.32688  -0.38193
H    -1.13690  -3.23324   0.18221
H    -0.45840  -3.50106  -1.42491
H     0.33355  -4.19315  -0.00061
C     0.75417  -2.20151   2.37346
H     0.82360  -1.46957   3.17454
H    -0.24991  -2.61980   2.37524
H     1.46562  -3.00496   2.57526
C     1.17641  -1.56910  -2.71976
H     1.10205  -0.62905  -3.26332
H     2.08516  -2.07929  -3.04459
H     0.31773  -2.18172  -2.98237
Rh    0.00000   0.00000   0.00000
S    -2.24784  -0.68345   0.41417
Cl   -0.57738   1.50726  -1.70254
C    -3.31645   0.59644   0.54681
C    -5.56444   4.13759   0.86441
C    -3.71371   2.97857   0.13183
C    -5.01501  -0.68998   1.74086
C    -6.27896  -0.47530   2.49359
C    -3.84180   5.31401  -0.30576
H    -3.43724   6.22652  -0.71708
C    -7.18013  -1.53474   2.56659
H    -6.93128  -2.45957   2.06850
C    -3.14621   4.12917  -0.42426
H    -2.19123   4.06658  -0.91856
C    -5.06852   5.32547   0.34733
H    -5.63162   6.23912   0.45280
C    -6.87118   4.07434   1.59103
H    -7.55644   4.82809   1.21301
H    -7.31801   3.08896   1.48579
H    -6.70928   4.26390   2.65217
C    -8.65767  -0.20000   3.89891
H    -9.58370  -0.08889   4.44321
C    -8.36748  -1.39445   3.25958
H    -9.06563  -2.21668   3.30592
C    -6.56756   0.71808   3.15105
H    -5.85814   1.53201   3.14709
C    -7.75375   0.84919   3.85055
H    -7.97361   1.77331   4.36458
O    -0.23132   1.21085   1.09674
