60

Ir    0.00000   0.00000   0.00000
S     2.29096   0.73932  -0.54432
Cl    0.67856  -1.40523   1.76954
N     3.10764  -1.70290  -0.03481
H     2.24059  -1.73384   0.53894
N     4.94930  -2.94261  -0.78261
N     4.52009  -0.45229  -1.35868
H     5.03918  -1.35675  -1.36039
C     6.22982   0.38976  -2.80679
C     3.36397  -0.54125  -0.65469
C     5.62040  -4.08871  -0.85706
C     5.00052   0.66493  -2.01686
C     6.89441  -4.06545  -1.64161
H     7.61052  -4.77115  -1.22931
H     6.69346  -4.35044  -2.67430
H     7.32385  -3.06689  -1.64099
C     3.79813  -2.89407  -0.11266
C     3.25870  -4.01142   0.53131
H     2.32427  -3.92258   1.05984
C     6.46909  -0.83970  -3.41569
H     5.74371  -1.63648  -3.34550
C     5.15297  -5.24552  -0.25034
H     5.71648  -6.16189  -0.32557
C     3.95428  -5.19976   0.45123
H     3.57100  -6.08813   0.93005
O     4.49107   1.75649  -1.93407
C    -2.14220   0.29838   0.38724
C     8.54802  -0.00462  -4.28246
H     9.45124  -0.16211  -4.85302
C    -1.92599   0.64210  -0.99139
C     7.14808   1.42489  -2.96450
H     6.93672   2.37791  -2.50366
C    -2.60876   0.01082  -2.15822
H    -2.65419   0.70498  -2.99404
H    -2.06823  -0.87916  -2.48317
H    -3.61975  -0.28625  -1.88712
C    -0.68396   2.09101   0.33306
C     8.30624   1.22511  -3.69158
H     9.01936   2.02814  -3.80214
C    -1.41727   1.25082   1.20120
C    -3.16895  -0.66347   0.89152
H    -2.91461  -1.01118   1.88985
H    -4.14463  -0.17472   0.93640
H    -3.24289  -1.52665   0.23409
C     7.62491  -1.02973  -4.15173
H     7.80610  -1.98153  -4.62896
C    -0.97149   1.69045  -1.03036
C    -1.53589   1.35767   2.68531
H    -1.39201   0.38699   3.15708
H    -0.79640   2.04391   3.08896
H    -2.53076   1.71882   2.95019
C    -0.48511   2.41088  -2.24276
H    -0.60088   1.79435  -3.13022
H    -1.04710   3.33665  -2.37985
H     0.56831   2.66490  -2.13877
C     0.13754   3.28195   0.69426
H     1.05451   3.30760   0.10756
H    -0.42522   4.19309   0.48425
H     0.40482   3.27366   1.74762
O     0.21986  -1.28203  -1.01517
