55

Rh    0.00000   0.00000   0.00000
C    -1.47537  -0.19587   1.51081
H    -2.17859   0.63795   1.49891
C     1.21787  -0.98553   1.50375
H     2.13571  -0.39923   1.56284
C     1.07091  -1.83281   0.42765
H     1.88580  -1.88635  -0.29317
C    -1.66346  -1.20783   0.56738
H    -2.45979  -1.07228  -0.16165
C    -1.09821   1.35415  -0.94290
N    -0.86085   2.66223  -1.13009
O    -2.34104   1.12116  -1.35726
C    -0.85675  -0.42229   2.87366
H    -1.56518  -0.97321   3.50354
H    -0.70393   0.55155   3.34553
C     0.48896  -1.17267   2.81814
H     1.12582  -0.81359   3.62939
H     0.33297  -2.24050   2.98150
C     0.11637  -3.00007   0.35540
H     0.52058  -3.83457   0.93980
H     0.06656  -3.32765  -0.68613
C    -1.30410  -2.65364   0.83716
H    -1.40361  -2.85282   1.90551
H    -2.01671  -3.30089   0.32130
C    -2.90928   2.28657  -1.78831
C    -1.99623   3.27362  -1.64571
C    -4.30621   2.25528  -2.28807
H    -4.57576   3.22008  -2.70709
H    -4.99453   2.01448  -1.47835
H    -4.40875   1.48892  -3.05449
C    -2.08664   4.73909  -1.86153
H    -3.01197   4.98441  -2.37516
H    -1.24425   5.10322  -2.44566
H    -2.06952   5.25744  -0.90232
C     0.35522   3.37582  -0.93628
C     1.09915   3.75058  -2.05496
C     2.22654   4.53383  -1.85968
H     2.81562   4.82237  -2.71812
C     2.62764   4.92875  -0.59311
C     1.89457   4.49674   0.50365
H     2.22249   4.76290   1.49834
C     0.75944   3.71802   0.35270
C     0.02563   3.17481   1.53782
H    -1.04239   3.38556   1.48385
H     0.42171   3.58553   2.46247
H     0.15967   2.08207   1.54599
C     0.76274   3.22376  -3.41519
H     0.99218   2.15700  -3.42049
H     1.36565   3.71107  -4.17652
H    -0.28906   3.34184  -3.66951
C     3.84518   5.77929  -0.39452
H     3.58519   6.70019   0.12666
H     4.30233   6.03414  -1.34695
H     4.57841   5.24898   0.21132
O     1.29385   0.50243  -0.89219
