55

Pd    0.00000   0.00000   0.00000
Br   -1.22991  -1.30745  -1.59464
P    -0.89563  -1.23604   1.64675
C     0.27324  -2.61710   1.83788
C     1.37675  -2.68696   0.98970
H     1.51810  -1.93869   0.19405
C     2.29252  -3.71504   1.12906
H     3.14376  -3.77034   0.46732
C     2.10964  -4.67420   2.11152
H     2.82177  -5.47880   2.21732
C     1.01002  -4.61073   2.95422
H     0.86716  -5.36479   3.71415
C     0.09149  -3.58687   2.82025
H    -0.77620  -3.54013   3.46518
C    -2.52149  -2.02194   1.73932
C    -2.71478  -3.20667   1.03106
H    -1.89022  -3.64538   0.48608
C    -3.96011  -3.80429   1.01496
H    -4.10681  -4.72055   0.46381
C    -5.01856  -3.22253   1.69432
H    -5.99216  -3.68900   1.67891
C    -4.83360  -2.03453   2.38239
H    -5.66181  -1.57399   2.90080
C    -3.59163  -1.42642   2.39970
H    -3.46057  -0.48932   2.92270
C    -0.68644  -0.32939   3.25359
H    -1.46376   0.44084   3.31142
H    -0.80879  -1.01632   4.09665
P     0.89630   1.23667   1.64697
C    -0.27252   2.61778   1.83798
C    -1.37619   2.68752   0.98998
H    -1.51772   1.93913   0.19446
C    -2.29195   3.71558   1.12939
H    -3.14333   3.77075   0.46782
C    -2.10888   4.67489   2.11167
H    -2.82101   5.47949   2.21748
C    -1.00910   4.61155   2.95417
H    -0.86608   5.36572   3.71396
C    -0.09059   3.58767   2.82019
H     0.77720   3.54101   3.46498
C     2.52219   2.02256   1.73937
C     2.71551   3.20713   1.03087
H     1.89098   3.64574   0.48574
C     3.96082   3.80480   1.01479
H     4.10755   4.72093   0.46342
C     5.01920   3.22326   1.69444
H     5.99282   3.68968   1.67899
C     4.83420   2.03541   2.38276
H     5.66237   1.57503   2.90138
C     3.59227   1.42723   2.40002
H     3.46109   0.49031   2.92332
C     0.68704   0.32982   3.25367
H     1.46439  -0.44039   3.31147
H     0.80940   1.01681   4.09667
O     0.84520   0.89854  -1.09579
