61

I     1.86668  -0.93263   1.53127
Pd    0.00000   0.00000   0.00000
P    -1.41004  -1.67935   0.54369
P    -1.64338   1.28710  -0.87840
C    -2.97076  -1.29009   1.46938
H    -3.84216  -1.59248   0.88452
H    -2.94898  -1.90433   2.37390
C    -3.05230   0.19317   1.84407
H    -3.49137   0.29810   2.83901
H    -2.03215   0.61030   1.89869
C    -3.88189   1.02066   0.86554
H    -3.82720   2.07058   1.16646
H    -4.93028   0.71313   0.93378
C    -3.43360   0.89012  -0.58712
H    -4.02040   1.57017  -1.21420
H    -3.60881  -0.12784  -0.95207
C    -0.86246  -3.20593   1.36139
C    -0.63892  -3.15748   2.73642
H    -0.80584  -2.23452   3.27768
C    -0.16978  -4.27234   3.40109
H     0.01123  -4.22690   4.46413
C     0.08685  -5.43927   2.69852
H     0.46069  -6.30891   3.21735
C    -0.11897  -5.48537   1.33064
H     0.09314  -6.38990   0.78032
C    -0.58543  -4.37073   0.65601
H    -0.72979  -4.40971  -0.41503
C    -1.82543  -2.25780  -1.13498
C    -0.82332  -2.08072  -2.09327
H     0.14792  -1.64681  -1.80873
C    -1.03028  -2.47713  -3.40157
H    -0.25236  -2.33487  -4.13637
C    -2.24153  -3.04524  -3.76454
H    -2.41162  -3.34385  -4.78796
C    -3.23218  -3.23853  -2.81530
H    -4.17076  -3.69245  -3.09790
C    -3.02572  -2.85559  -1.50088
H    -3.79756  -3.02876  -0.76294
C    -1.49255   2.87397  -0.00696
C    -0.63128   2.95606   1.08540
H    -0.01677   2.09289   1.38086
C    -0.52586   4.13594   1.79874
H     0.15033   4.19832   2.63788
C    -1.28225   5.23538   1.42794
H    -1.19583   6.15890   1.98028
C    -2.14764   5.15551   0.34787
H    -2.73589   6.01473   0.06088
C    -2.25881   3.97856  -0.36836
H    -2.92908   3.91490  -1.21537
C    -1.70737   1.67555  -2.65016
C    -1.11581   2.82350  -3.16805
H    -0.62981   3.52868  -2.50926
C    -1.13350   3.05247  -4.53143
H    -0.66995   3.94346  -4.92660
C    -1.72703   2.13828  -5.38585
H    -1.73001   2.31637  -6.45073
C    -2.30809   0.98954  -4.87469
H    -2.76445   0.26868  -5.53740
C    -2.29867   0.75580  -3.51248
H    -2.74417  -0.14924  -3.12124
O     1.03557   0.91470  -0.90190
