63

Pt    0.00000   0.00000   0.00000
Cl    1.66806   1.62799   0.03458
N     0.59977  -0.74159  -1.75310
H    -0.13624  -0.76161  -2.46274
N     1.86162  -1.90186  -3.31016
N     1.13425  -2.29359  -5.44437
N    -0.02177  -3.26488  -3.66893
C     1.67128  -1.38403  -2.08947
C     2.84810  -1.43467  -1.15597
H     3.13122  -0.40732  -0.91758
H     3.67719  -1.92167  -1.67041
C     2.51252  -2.16232   0.14532
H     1.64465  -1.68763   0.62054
H     3.35377  -2.10470   0.83111
H     2.27845  -3.20982  -0.03560
C     0.98701  -2.45414  -4.09600
C     2.05234  -1.27336  -5.89892
H     2.00925  -0.42431  -5.22181
H     1.75533  -0.95866  -6.89956
H     3.08358  -1.63863  -5.92849
C     0.98834  -3.40433  -6.36020
H     0.55640  -4.26240  -5.85436
H     1.96866  -3.69427  -6.75238
H     0.35127  -3.12289  -7.20226
C    -1.30285  -3.31730  -4.33548
H    -1.29893  -2.68359  -5.21832
H    -2.07484  -2.95807  -3.64781
H    -1.55507  -4.34180  -4.62368
C    -0.03000  -3.80037  -2.32536
H     0.99294  -3.89755  -1.96900
H    -0.48769  -4.79042  -2.35723
H    -0.59705  -3.17574  -1.62536
N    -0.59979   0.74241   1.75323
H     0.13589   0.76211   2.46318
N    -1.86197   1.90235   3.31021
N    -1.13518   2.29421   5.44460
N     0.02142   3.26525   3.66946
C    -1.67132   1.38479   2.08944
C    -2.84793   1.43543   1.15569
H    -3.13097   0.40821   0.91733
H    -3.67711   1.92234   1.66992
C    -2.51254   2.16273  -0.14567
H    -1.64446   1.68876  -0.62041
H    -3.35350   2.10491  -0.83172
H    -2.27920   3.20988   0.03538
C    -0.98756   2.45460   4.09624
C    -2.05356   1.27421   5.89907
H    -2.01049   0.42508   5.22205
H    -1.75681   0.95955   6.89981
H    -3.08472   1.63968   5.92839
C    -0.98923   3.40507   6.36025
H    -0.55702   4.26295   5.85430
H    -1.96957   3.69532   6.75217
H    -0.35237   3.12368   7.20248
C     1.30244   3.31718   4.33618
H     1.29817   2.68351   5.21905
H     2.07440   2.95765   3.64863
H     1.55498   4.34161   4.62437
C     0.02999   3.80096   2.32598
H    -0.99286   3.89832   1.96941
H     0.48778   4.79098   2.35816
H     0.59713   3.17644   1.62596
O    -1.18110  -1.15190  -0.02502
