58

Mo    0.00000   0.00000   0.00000
O     0.42603   1.14132   1.08718
N    -1.51495   1.04952  -0.80192
N     1.31911  -1.50944   0.61954
N     0.93550  -2.78806   0.79919
N    -1.41518  -1.03055   1.14727
N    -1.47027  -2.37518   1.19635
N    -0.55043  -1.51279  -1.47866
N    -0.64010  -2.80772  -1.09454
C    -1.41139   2.40399  -0.79368
C    -2.44736   3.25481  -1.09535
C    -3.68577   2.74053  -1.47329
C    -3.80040   1.35564  -1.52336
C    -2.72318   0.56761  -1.19045
C     2.56113  -1.38229   1.08596
C     2.98890  -2.62222   1.57097
C     1.93480  -3.49227   1.36776
C     3.29327  -0.09182   1.07578
C     1.84454  -4.94120   1.68579
C    -2.29696  -0.54941   2.02537
C    -2.94463  -1.62029   2.64670
C    -2.39816  -2.76395   2.09380
C    -2.46955   0.90584   2.27243
C    -2.72611  -4.18426   2.38143
C    -0.74422  -1.48068  -2.80465
C    -0.95014  -2.78045  -3.26962
C    -0.87399  -3.59651  -2.15658
C    -0.76320  -0.25480  -3.64495
C    -1.01381  -5.07396  -2.08399
B    -0.47297  -3.20907   0.37649
H    -0.65079  -4.36231   0.53424
H     3.94045  -2.84939   2.00658
H    -3.70630  -1.56542   3.39741
H    -1.12592  -3.08043  -4.28248
H     4.13626  -0.13192   1.76094
H     3.65968   0.12853   0.07247
H     2.61641   0.71496   1.36740
H     2.77822  -5.27301   2.13096
H     1.03277  -5.13192   2.38592
H     1.65742  -5.52312   0.78497
H    -2.83018   1.06786   3.28548
H    -1.51008   1.41063   2.14203
H    -3.18995   1.33993   1.57822
H    -3.52677  -4.23012   3.11419
H    -3.04492  -4.69819   1.47643
H    -1.85672  -4.70659   2.77696
H    -0.73760  -0.54293  -4.69325
H    -1.66773   0.32855  -3.46854
H     0.10011   0.37318  -3.42438
H    -1.20082  -5.46765  -3.07928
H    -0.10466  -5.52575  -1.69174
H    -1.83944  -5.35411  -1.43227
H    -0.43029   2.79164  -0.54138
H    -2.28426   4.32050  -1.05596
H    -4.51143   3.38401  -1.72831
H    -4.72766   0.88742  -1.81784
H    -2.82645  -0.51228  -1.20189
O     1.09272   0.49275  -1.13387
