33

Zn    0.00000   0.00000   0.00000
Cl    0.66479  -1.40675   1.64624
S     1.65781   0.15083  -1.94427
S     0.28349   2.37025   0.91034
N    -0.60476   0.77092  -3.27205
N     1.23612   0.89582  -4.46109
N     2.16200   1.10241   2.37005
N     2.10652   3.28314   2.61657
C     0.71422   0.61701  -3.25716
C    -1.09140   1.10316  -4.59515
H    -1.70056   2.00927  -4.55408
H    -1.70742   0.28909  -4.98892
C     0.20569   1.29630  -5.40019
H     0.24498   0.66847  -6.29555
H     0.35617   2.33921  -5.70201
C     2.62417   0.94594  -4.80649
H     3.20409   0.61698  -3.94698
H     2.91692   1.96500  -5.07332
H     2.82489   0.28626  -5.65342
C     1.55769   2.22583   2.00002
C     3.16308   1.34284   3.38889
H     4.11999   0.91333   3.08308
H     2.86190   0.88089   4.33398
C     3.20267   2.87855   3.47624
H     3.04246   3.24862   4.49340
H     4.14657   3.29166   3.10218
C     1.80392   4.66354   2.38949
H     0.96040   4.72233   1.70513
H     2.66326   5.17839   1.95132
H     1.54153   5.15018   3.33128
H    -1.22560   0.42764  -2.52333
H     1.77687   0.16400   2.18356
O    -1.48064  -0.30699  -0.66028
