64

Zn    0.00000   0.00000   0.00000
Cl   -1.78959  -1.09967  -0.80898
N     0.16771   1.07839  -1.81861
N    -2.46460   2.80165  -9.63351
N    -0.96796   1.94704   0.35266
N     1.56724  -1.01565  -1.16853
C    -1.26608   2.61773  -0.76165
C    -2.02843   3.78232  -0.72115
H    -2.24715   4.33138  -1.62294
C    -2.49286   4.23544   0.50272
H    -3.08925   5.13424   0.55852
C    -2.17990   3.52218   1.64825
H    -2.52485   3.84185   2.61828
C    -1.40465   2.37845   1.52037
H    -1.11506   1.78543   2.37701
C     0.24031   0.64470  -4.14437
H     0.59525   0.04250  -4.96445
C    -2.03131   2.52375  -8.34638
C    -0.74713   2.02139  -2.00328
C     0.64646   0.38323  -2.84249
C    -0.70894   2.13832  -8.10217
H    -0.01961   2.05169  -8.92869
C    -0.69627   1.65421  -4.37893
C    -1.15426   1.95459  -5.73514
C    -1.19649   2.34971  -3.27577
H    -1.93503   3.12115  -3.41849
C    -0.28473   1.85755  -6.82329
H     0.74598   1.57802  -6.66241
C    -1.57792   3.31288 -10.59491
C    -0.63855   4.28307 -10.24975
H    -0.59557   4.64383  -9.23232
C     3.19162  -2.70026  -1.55825
H     3.81373  -3.48555  -1.16023
C     3.21155  -2.38075  -2.90606
H     3.85699  -2.91277  -3.58942
C     2.39311  -1.36376  -3.36932
H     2.40450  -1.08779  -4.41153
C     1.56999  -0.69848  -2.46443
C     2.34867  -1.98080  -0.72318
H     2.29621  -2.17321   0.33963
C    -2.47251   2.34271  -5.98190
H    -3.17559   2.40175  -5.16490
C    -2.90584   2.61935  -7.25871
H    -3.92963   2.91880  -7.42552
C    -0.77737   3.37587 -12.86241
H    -0.83332   3.01867 -13.87992
C    -3.79997   2.57062 -10.00558
C    -4.47001   1.42786  -9.57290
H    -3.95586   0.71403  -8.94602
C    -4.46281   3.48002 -10.82727
H    -3.94542   4.36625 -11.16463
C    -1.64058   2.86409 -11.91281
H    -2.36782   2.11283 -12.18376
C    -5.77159   3.24818 -11.20473
H    -6.27643   3.96074 -11.83994
C     0.22581   4.78282 -11.20472
H     0.94876   5.53530 -10.92634
C     0.16093   4.33327 -12.51341
H     0.83615   4.72819 -13.25696
C    -5.78139   1.20903  -9.94896
H    -6.29075   0.31982  -9.60861
C    -6.43733   2.11566 -10.76553
H    -7.46079   1.93959 -11.05920
O     0.66778  -0.19780   1.49581
