29

Br    4.88811  -2.27334  -2.50683
C    -2.93139  -1.03183  -0.13396
H    -2.22998  -0.46450  -0.76476
C    -4.28442  -1.02973  -0.43027
H    -4.63726  -0.49111  -1.29610
C    -5.18026  -1.70201   0.38534
H    -6.23405  -1.68839   0.15265
C    -4.72815  -2.37968   1.50540
H    -5.42564  -2.89452   2.14827
C    -3.37834  -2.38771   1.81128
H    -3.01466  -2.89923   2.68955
C    -2.48703  -1.71569   0.98984
C    -0.33659  -3.35084   0.58153
H     0.58612  -3.70871   1.03864
H    -1.14419  -4.04723   0.80157
C    -0.16613  -3.19622  -0.93077
H    -0.18118  -4.17859  -1.40970
H    -0.98919  -2.59013  -1.33742
C     2.20206  -3.12141  -1.74762
H     2.27846  -4.16428  -1.97710
C     3.12885  -2.10693  -1.87330
C     2.48588  -0.94322  -1.43085
H     2.84865   0.06784  -1.38437
Cl   -1.15967   1.37104   1.30991
N     1.07936  -2.55658  -1.26057
N     1.25119  -1.24825  -1.06756
Pd    0.00000   0.00000   0.00000
S    -0.74662  -1.76680   1.43514
O     0.36403   1.24819  -1.01587
