22

Ru    0.00000   0.00000   0.00000
Cl   -1.30868  -1.92824  -0.32704
N     1.20082  -0.85939  -1.62526
H     0.43902  -0.91668  -2.32027
H     1.90820  -0.25900  -2.06709
O     1.27813  -1.70587   2.12316
O    -2.42744   0.91378   1.49795
O     1.44995   2.63685  -0.03657
O     2.69530  -1.82064  -3.67281
O     2.83096  -3.87752  -2.77565
C     0.84174  -1.01256   1.33621
C    -1.44404   0.60470   1.03444
C     0.96353   1.61397   0.03040
C     1.77775  -2.20027  -1.48745
H     0.98967  -2.92192  -1.25047
H     2.51746  -2.21597  -0.67935
C     2.48394  -2.60021  -2.78139
C     3.51283  -4.36243  -3.93035
H     3.53281  -5.44461  -3.83734
H     4.52791  -3.96281  -3.96155
H     2.98401  -4.06087  -4.83580
O    -0.79457   0.74660  -1.23844
