53

Pt    0.00000   0.00000   0.00000
O     4.63625   0.66775  11.75681
N    -1.10611  -1.46477   1.00705
N     1.35780   1.52370  -0.46975
C     0.83721   0.16630   1.73236
C     0.29767  -0.51756   2.81429
C     0.88634  -0.39036   4.05726
H     0.47435  -0.91570   4.90587
C     2.00828   0.43556   4.22348
C     2.53054   1.12275   3.11561
H     3.39597   1.75817   3.25076
C     1.95202   0.98301   1.86944
C    -0.96170  -1.28644   2.48485
H    -1.81769  -0.70449   2.84215
H    -0.99456  -2.26553   2.97925
C    -0.46064  -2.71588   0.59692
H    -0.97297  -3.58078   1.03695
H     0.58091  -2.71525   0.92350
H    -0.49531  -2.80087  -0.49088
C    -2.51948  -1.50084   0.63338
H    -2.59980  -1.62513  -0.44673
H    -2.99615  -0.55781   0.90319
H    -3.04002  -2.32701   1.13243
C     2.43153   1.58479   0.56862
H     3.28106   0.99278   0.21249
H     2.77272   2.62110   0.68710
C     0.53554   2.73560  -0.39503
H     1.12587   3.62376  -0.65383
H     0.14466   2.85127   0.61748
H    -0.29876   2.65016  -1.09373
C     1.94384   1.41519  -1.80491
H     1.14285   1.36811  -2.54283
H     2.52731   0.49691  -1.87772
H     2.58905   2.27409  -2.02538
C     2.65554   0.62777   5.50583
H     3.47032   1.33952   5.48627
C     2.34649   0.02446   6.66408
H     1.54462  -0.70158   6.68709
C     2.98766   0.23566   7.94571
C     2.57051  -0.52531   9.04535
H     1.78767  -1.25870   8.91280
C     3.13464  -0.36253  10.28836
H     2.80992  -0.95171  11.13170
C     4.14666   0.57845  10.48815
C     4.57436   1.34320   9.40772
H     5.35373   2.08037   9.52472
C     4.00137   1.16930   8.16262
H     4.35329   1.78236   7.34731
C     5.64616   1.60880  12.02330
H     6.55170   1.40359  11.44270
H     5.87003   1.50919  13.08446
H     5.30816   2.63043  11.82002
O    -0.71715  -0.13648  -1.47972
