50

Pt    0.00000   0.00000   0.00000
N    -1.15120  -1.41093   1.03320
N     1.38490   1.49032  -0.49524
N     4.74761   1.43769  12.90277
C     0.76237   0.25788   1.75327
C     0.17928  -0.37437   2.84561
C     0.72513  -0.19718   4.10072
H     0.28515  -0.68934   4.95506
C     1.84979   0.62652   4.26867
C     2.41919   1.25851   3.14997
H     3.28700   1.88997   3.28751
C     1.88095   1.07090   1.89285
C    -1.06977  -1.15403   2.50386
H    -1.93607  -0.54904   2.79110
H    -1.13085  -2.10439   3.04887
C    -0.48922  -2.68150   0.71943
H    -1.02308  -3.52265   1.17907
H     0.53585  -2.66361   1.09401
H    -0.47276  -2.82320  -0.36281
C    -2.54768  -1.47043   0.60261
H    -2.58221  -1.65529  -0.47115
H    -3.03504  -0.51483   0.79875
H    -3.08901  -2.26838   1.12448
C     2.41343   1.60689   0.58388
H     3.27817   1.00029   0.29538
H     2.74835   2.64868   0.66428
C     0.56933   2.70884  -0.52969
H     0.13537   2.88818   0.45568
H    -0.23440   2.58556  -1.25805
H     1.17708   3.57634  -0.81577
C     2.02817   1.29892  -1.79469
H     1.26003   1.21167  -2.56328
H     2.60767   0.37521  -1.78704
H     2.68834   2.14003  -2.03724
C     2.46046   0.85920   5.55922
H     3.34148   1.48673   5.52410
C     2.03905   0.39274   6.74725
H     1.14948  -0.22111   6.79166
C     2.65470   0.63726   8.03266
C     2.03046   0.13224   9.18198
H     1.11025  -0.42527   9.07828
C     2.56010   0.33282  10.43609
H     2.06630  -0.06088  11.31265
C     3.74865   1.05234  10.57967
C     4.38825   1.55939   9.44555
H     5.30924   2.11277   9.55955
C     3.84769   1.35306   8.19687
H     4.36096   1.74991   7.33501
C     4.30007   1.26473  11.86048
O    -0.65289  -0.21934  -1.49937
