55

Zr    0.00000   0.00000   0.00000
Si    2.62598  -0.17801  -1.45848
C     1.94739  -0.24208   1.39076
C     2.30945   0.56809   0.27000
C     1.74358   2.98840  -0.49694
H     1.23585   3.86027  -0.08800
H     1.34167   2.78542  -1.49183
H     2.79837   3.23902  -0.61115
C     1.04334   0.47768   2.20990
C     1.59234   1.79817   0.41124
C     2.46189  -1.62708   1.68415
H     1.87546  -2.39400   1.16269
H     2.40965  -1.83391   2.75307
H     3.50115  -1.71571   1.37283
C     0.49761   0.01269   3.53461
H    -0.37543   0.59648   3.82697
H     1.24861   0.11954   4.32181
H     0.20273  -1.03761   3.48756
C     0.82376   1.75360   1.60297
C     3.88311  -1.63795  -1.42501
H     4.09099  -1.96544  -2.43908
H     3.52811  -2.49831  -0.86898
H     4.82825  -1.32771  -0.99118
C     0.09845   2.91019   2.24040
H     0.79110   3.50592   2.84137
H    -0.69621   2.56331   2.90109
H    -0.34272   3.56793   1.49084
N     0.95459  -0.47518  -1.75453
C     0.35381  -1.45790  -2.63510
N    -1.64364   1.05648  -0.41874
C     0.60450  -2.88324  -2.10279
H     0.29402  -2.94301  -1.05567
H     1.66165  -3.12450  -2.17236
H     0.04193  -3.61480  -2.67936
C    -1.17090  -1.21346  -2.67013
H    -1.37594  -0.20194  -3.02589
H    -1.59686  -1.33300  -1.66284
H    -1.65110  -1.92396  -3.34212
C     0.91278  -1.33607  -4.06114
H     1.97844  -1.54588  -4.05837
H     0.76452  -0.32318  -4.42752
H     0.41672  -2.03416  -4.73110
C    -1.65383   2.19093  -1.31471
H    -1.48213   3.14757  -0.78103
H    -2.62760   2.28349  -1.82846
H    -0.87255   2.06490  -2.07442
C     3.43559   1.04730  -2.70142
H     2.72019   1.75113  -3.11206
H     3.87206   0.50617  -3.53408
H     4.23144   1.61606  -2.23381
C    -2.66284   1.18676   0.60239
H    -3.67243   1.19624   0.15389
H    -2.56038   2.12737   1.17891
H    -2.60984   0.33765   1.29652
O    -0.66761  -1.33791   0.69770
