37

Zn    0.00000   0.00000   0.00000
O     1.75601   0.68355   0.63158
O     0.93384  -0.91648  -1.86431
H     1.88921  -0.84956  -1.74599
O    -2.55117   1.63511  -3.18882
O    -2.84108  -1.69736  -3.44254
H    -3.29393  -1.03024  -3.97317
N    -0.21847   1.94091  -0.60845
N    -1.62043   0.10628  -1.75070
H    -2.33534  -0.60278  -1.58904
C     0.80822   2.68196  -0.18670
C     1.84815   1.96409   0.49766
C     2.92568   2.73280   0.94040
H     3.72944   2.24169   1.46603
C     2.97220   4.10541   0.71242
H     3.82601   4.65570   1.08183
C     1.98851   4.78354   0.02548
H     2.06447   5.84479  -0.15353
C     0.87843   4.07511  -0.45380
C    -0.18591   4.61549  -1.20983
H    -0.18434   5.67226  -1.43559
C    -1.19645   3.80932  -1.67208
H    -2.00027   4.19339  -2.28006
C    -1.17626   2.44466  -1.34576
C    -2.20294   1.43607  -1.83047
H    -3.11988   1.51932  -1.23667
C    -1.53650   1.01333  -3.94205
H    -0.73241   1.72521  -4.17252
H    -1.97626   0.67048  -4.88079
C    -1.00082  -0.14581  -3.05200
C     0.53391  -0.10634  -2.95070
H     0.96312  -0.48916  -3.88599
H     0.86732   0.92783  -2.80231
C    -1.45631  -1.53358  -3.54864
H    -1.10663  -1.68861  -4.57910
H    -1.01506  -2.29629  -2.90237
O    -0.81068  -1.15237   0.85868
