25

C    -1.38035   1.25936  -0.42261
C    -2.63458   0.76770  -0.79274
C    -3.63558   1.69085  -1.09473
H    -4.62492   1.36831  -1.38641
C    -3.34434   3.04878  -1.01498
H    -4.12393   3.75900  -1.24981
C    -2.09341   3.53223  -0.64541
H    -1.92021   4.59792  -0.59816
C    -1.08179   2.62167  -0.34045
C    -2.62390  -0.67486  -0.78108
H    -3.50507  -1.26037  -1.04192
C    -1.44571  -2.70248  -0.41807
H    -1.15573  -3.02589   0.58418
H    -0.65961  -3.03346  -1.10056
H    -2.39635  -3.16819  -0.69627
C     0.28976   2.80395   0.06798
H     0.72810   3.79382   0.19165
C     2.37232   1.85776   0.69942
H     2.69416   2.90209   0.76452
H     3.00505   1.31966  -0.01019
H     2.49692   1.37308   1.67064
N    -1.51984  -1.26791  -0.44708
N     1.00055   1.74159   0.28819
Pt    0.00000   0.00000   0.00000
O     1.18846  -1.08477   0.36516
