27

Au    0.00000   0.00000   0.00000
O    -0.87295   2.25686  -1.66198
O    -0.58136  -2.75484  -0.71379
N    -0.85428   0.99544  -1.60022
N    -0.72235  -1.58223  -1.09960
C    -1.37422   0.19085  -2.48279
C    -1.29561  -1.20549  -2.21113
C    -1.85653  -2.22817  -3.14879
H    -1.70106  -3.21738  -2.72479
H    -1.36003  -2.17091  -4.11608
H    -2.92235  -2.06465  -3.29835
C    -2.03469   0.72231  -3.71477
H    -1.95447   1.80692  -3.71426
H    -3.08606   0.44047  -3.73570
H    -1.55369   0.32465  -4.60642
N     0.81658   1.74299   0.98521
C     0.20333   2.91723   0.89292
H    -0.62889   2.97488   0.20306
C     0.63877   4.03415   1.58407
H     0.10726   4.96635   1.48150
C     1.75432   3.92443   2.39810
H     2.11707   4.77479   2.95575
C     2.39696   2.69866   2.47602
H     3.27421   2.56352   3.08779
C     1.89614   1.62992   1.75553
H     2.34447   0.64994   1.81329
O     0.56050  -0.89099   1.27062
