30

C     1.03455  -2.39502  -0.57911
C     0.35601  -3.60230  -0.42905
H     0.04498  -3.90719   0.55960
C     0.06442  -4.39016  -1.52748
H    -0.46689  -5.31871  -1.39061
C     0.45198  -3.99147  -2.79586
H     0.22607  -4.60554  -3.65279
C     1.09907  -2.78105  -2.97138
H     1.34901  -2.43658  -3.96203
C     1.39522  -1.97840  -1.87784
C     3.00875  -0.31366  -2.83979
C     3.12102   1.05281  -2.69533
H     3.84443   1.68851  -3.16256
C     2.10038   1.44308  -1.81221
C     3.84892  -1.25573  -3.62191
H     3.85952  -2.24262  -3.16421
H     4.86564  -0.87500  -3.67692
H     3.47556  -1.35314  -4.64104
C     1.75942   2.78390  -1.27773
H     1.09217   2.66538  -0.41727
H     1.23595   3.36797  -2.03285
H     2.65842   3.32160  -0.98480
N     1.34639  -1.60176   0.55129
H     2.31939  -1.31158   0.62223
H     0.98993  -1.99615   1.42282
N     1.96846  -0.70041  -2.05716
N     1.42024   0.37056  -1.44542
Cl   -1.43981   1.52383  -0.70849
Pd    0.00000   0.00000   0.00000
O    -0.99225  -0.49142   1.22330
