49

Zr    0.00000   0.00000   0.00000
Cl    1.77128  -1.10837   1.02838
C    -3.57871  -0.47159  -0.57182
C    -4.49954  -0.54975  -1.59482
H    -4.15542  -0.71060  -2.60581
C    -5.87394  -0.50176  -1.33409
H    -6.56942  -0.55711  -2.15814
C    -6.32749  -0.46905  -0.04480
H    -7.38403  -0.52864   0.17061
C    -5.86044  -0.35344   2.37301
H    -6.91631  -0.45861   2.57370
C    -4.96440  -0.21742   3.39665
H    -5.29796  -0.24422   4.42312
C    -3.61704   0.04381   3.12210
H    -2.94627   0.28293   3.93387
C    -3.14900   0.07611   1.82568
C    -4.03421  -0.25036   0.75874
C    -5.42252  -0.35837   1.03186
C    -1.52930  -1.89664  -0.11561
H    -1.96849  -2.45384   0.70533
C    -2.18643  -0.85899  -0.84318
C    -1.39382  -0.51101  -1.96508
H    -1.66273   0.19839  -2.74024
C     0.77693  -1.57683  -2.92714
H     0.86160  -0.91945  -3.78232
C     1.68187  -2.58653  -2.71547
H     2.50032  -2.72443  -3.40593
C     1.56474  -3.46436  -1.62196
H     2.29312  -4.25301  -1.50859
C     0.55184  -3.33749  -0.70604
H     0.46645  -4.01630   0.13216
C    -0.38758  -2.30045  -0.87471
C    -0.28662  -1.41872  -2.01616
C    -0.64488   0.51544   2.31127
H    -0.50132  -0.16194   3.14604
C    -1.83294   0.66902   1.55498
C    -1.64512   1.71985   0.60634
H    -2.43145   2.15563  -0.00051
C     0.28390   3.43555   0.31754
H    -0.20288   4.03485  -0.44064
C     1.54159   3.74519   0.76757
H     2.05979   4.60108   0.36227
C     2.18536   2.96531   1.74658
H     3.18190   3.24213   2.05634
C     1.57270   1.87878   2.31899
H     2.06521   1.29812   3.08822
C     0.26893   1.53993   1.90342
C    -0.37199   2.31197   0.86020
O     0.99073   0.82379  -1.03069
