43

Rh    0.00000   0.00000   0.00000
Cl   -1.64645   0.50562  -1.48168
S     1.62784   0.92924  -1.35134
O     1.81035   0.58410  -2.74695
C     0.77831  -0.87214   1.85979
C    -0.51816  -1.42727   1.57618
H    -1.34804  -1.42567   2.26835
C    -0.40013  -2.29926   0.42889
C    -1.28570  -3.18724  -0.19114
H    -2.27634  -3.33710   0.21060
C    -0.85984  -3.85830  -1.31530
H    -1.52688  -4.55187  -1.80410
C     0.42167  -3.66475  -1.84645
H     0.70974  -4.21050  -2.73173
C     1.31816  -2.79758  -1.26313
H     2.30797  -2.65111  -1.67087
C     0.91415  -2.10329  -0.11815
C     1.61561  -1.16296   0.75518
C     2.96766  -0.65137   0.46933
C     3.12600   0.31428  -0.49940
C     4.39596   0.76183  -0.88330
H     4.47970   1.47751  -1.68535
C     5.50715   0.27831  -0.25199
H     6.49069   0.62330  -0.53436
C     5.39362  -0.68388   0.77468
C     6.52560  -1.19579   1.44262
H     7.50050  -0.81974   1.16899
C     6.39394  -2.14948   2.41288
H     7.26604  -2.53574   2.91875
C     5.12492  -2.64046   2.75616
H     5.03873  -3.39965   3.51888
C     4.00612  -2.16532   2.13078
H     3.02899  -2.54502   2.38960
C     4.10934  -1.17170   1.13484
C     1.15850  -0.11835   3.09147
H     2.17567   0.25896   3.01152
H     1.09200  -0.77744   3.95742
H     0.48402   0.72231   3.24938
C     1.90438   2.72253  -1.19922
H     1.00062   3.20394  -1.55829
H     2.75120   3.00494  -1.81227
H     2.05534   2.95154  -0.15115
O    -0.31194   1.46407   0.69404
