62

Re    0.00000   0.00000   0.00000
Br    1.56281  -1.65491  -1.04772
P    -1.71430   1.65402   0.79792
O    -0.72354   0.37375  -1.67579
O    -3.19853  -2.85944  -0.94802
O     0.42375  -0.35980   1.55700
N    -1.56936  -1.58935  -0.13727
C    -1.59532   0.04112  -2.57994
C    -1.69499   0.74935  -3.78734
H    -1.00940   1.56534  -3.96248
C    -2.63580   0.39833  -4.72803
H    -2.69522   0.95478  -5.65140
C    -3.50639  -0.66421  -4.50336
H    -4.23926  -0.92891  -5.24926
C    -3.42246  -1.38362  -3.33299
H    -4.08203  -2.21689  -3.14520
C    -2.47743  -1.05045  -2.36035
C    -2.38406  -1.80631  -1.14359
C    -2.86470  -3.35758   0.27258
C    -3.38197  -4.43388   0.96736
H    -4.17356  -5.03919   0.55737
C    -2.82171  -4.68975   2.20622
H    -3.19040  -5.52278   2.78462
C    -1.78936  -3.90751   2.72677
H    -1.38314  -4.15614   3.69489
C    -1.27190  -2.83170   2.03455
H    -0.46730  -2.21899   2.41383
C    -1.83001  -2.56386   0.79287
C    -1.75208   3.32082   0.07159
C    -2.33909   4.37006   0.77345
H    -2.74168   4.20259   1.76206
C    -2.39624   5.62899   0.20571
H    -2.85000   6.44149   0.75357
C    -1.86809   5.85112  -1.05614
H    -1.90967   6.83812  -1.49155
C    -1.27817   4.81065  -1.75336
H    -0.85400   4.98335  -2.73070
C    -1.21882   3.54784  -1.19290
H    -0.73876   2.74575  -1.73279
C    -1.67738   1.93765   2.58794
C    -0.42993   2.01856   3.20143
H     0.46839   1.87461   2.61588
C    -0.34578   2.26677   4.55949
H     0.62182   2.32564   5.03352
C    -1.49995   2.43560   5.30717
H    -1.43403   2.62599   6.36795
C    -2.74204   2.35891   4.69707
H    -3.64169   2.49229   5.27997
C    -2.83662   2.11229   3.33952
H    -3.80730   2.05297   2.86523
C    -3.34670   0.96273   0.42635
C    -4.04191   1.33833  -0.71898
H    -3.67540   2.15346  -1.32866
C    -5.19660   0.66542  -1.07738
H    -5.72907   0.95593  -1.97067
C    -5.66070  -0.38398  -0.30146
H    -6.55697  -0.91248  -0.58915
C    -4.97304  -0.76026   0.84287
H    -5.33179  -1.58037   1.44804
C    -3.81594  -0.09685   1.20313
H    -3.25978  -0.39919   2.08153
O     1.11158   1.21266  -0.12793
