24

Pt    0.00000   0.00000   0.00000
Cl    1.92394   0.86626  -0.77361
S    -0.93126   1.99992  -0.63202
O    -2.37192   2.11713  -0.42200
N    -1.73813  -0.71928   0.69232
C    -1.85654  -1.08169   1.96871
C    -3.05122  -1.53248   2.49974
C    -4.16371  -1.61544   1.67697
C    -4.02985  -1.24646   0.34739
C    -2.80048  -0.80381  -0.10453
C    -0.13927   3.42357   0.17425
C    -0.59206   2.46367  -2.35851
H    -0.96033  -1.01852   2.57262
H    -3.10380  -1.81439   3.53896
H    -5.11056  -1.96280   2.06074
H    -4.86435  -1.29911  -0.33283
H    -2.66392  -0.50831  -1.13599
H     0.92117   3.36349  -0.04199
H    -0.31408   3.34182   1.24184
H    -0.57965   4.33710  -0.20739
H     0.48309   2.43604  -2.49105
H    -1.00026   3.45014  -2.54364
H    -1.07054   1.73428  -3.00323
O     0.71855  -1.41631   0.44748
