68

Ru    0.00000   0.00000   0.00000
Cl    1.53162   0.81813  -1.49178
O    -1.07151  -0.99118  -1.73707
N     0.78071   2.20281   1.64281
N     1.69001   0.45092   2.52190
C     0.92903   0.88076   1.51856
C     1.41760   2.75136   2.82720
H     0.66334   3.16753   3.50540
H     2.11337   3.55006   2.55006
C     2.12286   1.52648   3.41283
H     3.21372   1.61494   3.38679
H     1.81953   1.30871   4.44070
C     0.50275  -1.81143   0.23559
H     1.12541  -2.22507   1.02862
C     0.06245  -2.75407  -0.72986
C     0.43327  -4.10766  -0.69404
H     1.07463  -4.44339   0.10795
C    -0.00624  -4.98681  -1.65944
H     0.28669  -6.02509  -1.62035
C    -0.82504  -4.53797  -2.68524
H    -1.16618  -5.22487  -3.44501
C    -1.21785  -3.20912  -2.75110
H    -1.85250  -2.89224  -3.56403
C    -0.78399  -2.31629  -1.78470
C    -2.06207  -0.42202  -2.59101
H    -1.86471  -0.74139  -3.62487
C    -3.45597  -0.85288  -2.13911
H    -3.60342  -0.55483  -1.10204
H    -3.57494  -1.93197  -2.20550
H    -4.21175  -0.37589  -2.75714
C    -1.89237   1.08875  -2.48882
H    -0.87054   1.36792  -2.74823
H    -2.11704   1.40769  -1.46854
H    -2.57622   1.59371  -3.16565
C     2.15363  -0.86320   2.79050
C     1.42102  -1.67289   3.66277
C     1.93006  -2.92528   3.98043
H     1.38176  -3.57198   4.64790
C     3.12967  -3.35732   3.44791
H     3.51533  -4.33178   3.71002
C     3.82931  -2.55337   2.56855
H     4.75441  -2.91130   2.14374
C     3.35455  -1.29521   2.22101
C     4.10056  -0.45218   1.21608
H     3.55763   0.48463   1.06256
C     4.14062  -1.16853  -0.13530
H     4.65914  -2.12139  -0.06504
H     4.64916  -0.54742  -0.86837
H     3.12467  -1.34606  -0.48516
C     5.51221  -0.12527   1.70803
H     6.11256  -1.02751   1.79302
H     5.48055   0.35483   2.68480
H     6.00371   0.54624   1.00794
C     0.08244  -1.23462   4.20491
H    -0.12409  -0.21630   3.86462
C     0.06739  -1.24942   5.73484
H     0.88826  -0.65664   6.13526
H     0.16280  -2.26279   6.11600
H    -0.86928  -0.83593   6.10153
C    -1.02065  -2.12750   3.63251
H    -0.86450  -3.16947   3.90057
H    -1.03309  -2.04259   2.54651
H    -1.98917  -1.81013   4.01102
C    -0.02790   3.04067   0.80338
H    -0.97279   3.29594   1.29627
H    -0.24234   2.51455  -0.13552
H     0.51367   3.95997   0.56740
O    -1.44436   0.16858   0.77968
