69

Ru    0.00000   0.00000   0.00000
Cl   -1.76099   1.35727  -0.66698
O     1.36395   1.76026  -0.34607
N    -1.87169  -2.07924  -0.70507
N    -1.26968  -2.41379   1.35867
C    -1.12727  -1.61546   0.30288
C    -2.64250  -3.25663  -0.33988
H    -2.39123  -4.10411  -0.98396
H    -3.71289  -3.05074  -0.43326
C    -2.22546  -3.48761   1.11691
H    -3.07158  -3.39767   1.80431
H    -1.75690  -4.46379   1.26317
C     0.06908   0.77142   1.73345
H    -0.51616   0.47835   2.60932
C     0.88820   1.91399   1.91994
C     1.02870   2.56552   3.15630
H     0.50157   2.16967   4.01237
C     1.81854   3.68731   3.27935
H     1.91831   4.17677   4.23632
C     2.48284   4.19381   2.17147
H     3.09719   5.07637   2.26662
C     2.36853   3.58054   0.93265
H     2.89200   4.00287   0.08907
C     1.58457   2.44620   0.79872
C     2.01769   2.09915  -1.56581
H     1.96726   3.18864  -1.70726
C     3.46562   1.61339  -1.53869
H     4.02892   2.09979  -0.74557
H     3.94670   1.82061  -2.49077
H     3.47964   0.53928  -1.35872
C     1.22095   1.40515  -2.66483
H     1.27381   0.32274  -2.51404
H     1.63464   1.63755  -3.64245
H     0.18085   1.73359  -2.63194
C    -0.42988  -2.39720   2.53478
H     0.26094  -1.55905   2.38700
C     0.41966  -3.66543   2.66239
H     0.97841  -3.81750   1.73745
H    -0.21373  -4.53739   2.83985
C     1.38109  -3.50315   3.83627
H     1.99400  -4.40078   3.93719
H     2.04776  -2.66189   3.63866
C     0.60920  -3.25224   5.12857
H    -0.01240  -4.12219   5.35412
H     1.30725  -3.11792   5.95673
C    -0.27820  -2.01800   4.99476
H     0.34935  -1.13896   4.83408
H    -0.84487  -1.86438   5.91524
C    -1.23448  -2.17496   3.81588
H    -1.89124  -3.02979   3.99262
H    -1.85650  -1.28489   3.70690
C    -1.70530  -1.65472  -2.07847
H    -1.11715  -0.71859  -2.04071
C    -3.03947  -1.34757  -2.75337
H    -3.57603  -0.60782  -2.15712
H    -3.64227  -2.25699  -2.81409
C    -2.78867  -0.80331  -4.15672
H    -3.74186  -0.60048  -4.64815
H    -2.24636   0.14103  -4.07884
C    -1.97655  -1.79573  -4.98429
H    -2.55058  -2.71679  -5.11232
H    -1.78561  -1.38189  -5.97620
C    -0.65316  -2.11663  -4.29533
H    -0.05229  -1.20723  -4.22533
H    -0.09004  -2.84319  -4.88447
C    -0.90031  -2.67106  -2.89547
H    -1.45154  -3.61111  -2.97500
H     0.04961  -2.86807  -2.39068
O     1.26477  -1.03308  -0.23582
