58

Ir    0.00000   0.00000   0.00000
O    -3.43200  -0.76563   0.05896
O     0.80196  -1.22591  -3.20648
N    -0.18274   2.67675   1.78795
N    -0.68932   1.43486   1.64713
N     1.53019   2.80729   0.14211
N     1.57659   1.51014  -0.22504
N    -0.63523   3.50231  -0.41122
N    -0.14974   3.56498  -1.66368
C    -2.33838  -0.76812  -0.49832
C    -1.27357  -1.73787  -0.25524
C    -0.16798  -1.86629  -1.12204
C     0.00285  -1.01943  -2.29795
C    -0.77111   0.23133  -2.17172
C    -1.85971   0.34444  -1.34184
C     0.33102   3.40420   0.66576
C    -1.14852   1.06446   2.83217
C    -0.92818   2.09749   3.76138
C    -0.30658   3.10974   3.07277
C    -1.78251  -0.25081   3.07062
C     0.17933   4.43047   3.54611
C     2.76537   1.29986  -0.77014
C     3.49350   2.50173  -0.76948
C     2.67926   3.44659  -0.19611
C     3.20666  -0.02221  -1.26598
C     2.90967   4.89383   0.03670
C    -1.17927   3.78450  -2.45504
C    -2.36023   3.88841  -1.69373
C    -1.98130   3.71434  -0.38292
C    -1.02514   3.89441  -3.92808
C    -2.81940   3.70974   0.84147
H     0.48035  -2.73160  -1.04088
H    -1.47432  -2.51845   0.47093
H    -0.53112   1.02171  -2.87442
H    -2.49963   1.21836  -1.39416
H     0.59742   4.41282   1.02021
H    -1.18639   2.08851   4.79978
H    -2.50108  -0.47648   2.28577
H    -1.01550  -1.02435   3.05823
H    -2.28025  -0.25870   4.03584
H     1.25998   4.51058   3.42882
H    -0.29159   5.25208   3.00525
H    -0.05753   4.53636   4.60080
H     4.48441   2.64786  -1.14627
H     4.26229   0.00737  -1.51855
H     3.03636  -0.77788  -0.50144
H     2.64062  -0.31145  -2.15047
H     3.89954   5.15734  -0.32381
H     2.17552   5.48924  -0.50539
H     2.85406   5.14265   1.09664
H    -3.35161   4.06475  -2.05797
H    -1.28823   4.89782  -4.26149
H     0.00501   3.68601  -4.20371
H    -1.68476   3.18848  -4.43066
H    -2.92380   2.69799   1.23366
H    -2.39924   4.34207   1.62236
H    -3.81041   4.07847   0.59037
O     0.96651  -0.61541   1.18728
