67

Pd    0.00000   0.00000   0.00000
Cl    1.55458   1.17132  -1.13925
P    -1.22327   1.78982   0.59284
P    -1.83703  -0.82284   1.01019
N    -2.35265   0.77302   1.43460
C    -3.65319   1.14075   1.86738
C    -4.68641   1.19885   0.93647
H    -4.46704   0.97763  -0.09879
C    -5.96741   1.53730   1.32720
H    -6.75952   1.57878   0.59537
C    -6.22431   1.81738   2.65875
H    -7.22321   2.07656   2.97577
C    -5.19917   1.76020   3.58472
H    -5.40572   1.96849   4.62454
C    -3.90089   1.42917   3.21327
C    -2.81514   1.38620   4.25114
H    -1.91292   0.94295   3.82524
H    -3.14039   0.75549   5.08263
C    -2.49215   2.78357   4.78042
H    -2.16522   3.43180   3.97070
H    -1.69282   2.72968   5.51533
H    -3.36527   3.23104   5.24975
C    -0.31159   2.65046   1.90865
C    -0.34746   4.01894   2.14812
H    -0.99752   4.65495   1.56397
C     0.46864   4.56672   3.12432
H     0.44121   5.63061   3.30888
C     1.32349   3.75856   3.85404
H     1.96025   4.19295   4.61013
C     1.38419   2.39614   3.59837
H     2.07281   1.77250   4.14854
C     0.58008   1.84409   2.62080
H     0.65491   0.77254   2.38400
C    -2.23395   3.01834  -0.27177
C    -2.06707   3.08946  -1.65152
H    -1.32729   2.45171  -2.12309
C    -2.82714   3.97580  -2.39309
H    -2.69574   4.03836  -3.46287
C    -3.75794   4.78241  -1.75814
H    -4.35454   5.47342  -2.33509
C    -3.92666   4.70945  -0.38374
H    -4.65360   5.34062   0.10605
C    -3.16618   3.83107   0.36648
H    -3.29915   3.77154   1.43740
C    -2.14899  -1.87100   2.45516
C    -1.11695  -2.75642   2.76101
H    -0.22649  -2.75811   2.14213
C    -1.24105  -3.61665   3.83696
H    -0.44266  -4.30419   4.07277
C    -2.38928  -3.59044   4.61204
H    -2.48775  -4.25879   5.45478
C    -3.41417  -2.70679   4.31089
H    -4.30808  -2.68884   4.91757
C    -3.30268  -1.84690   3.23297
H    -4.10123  -1.15546   3.00679
C    -2.98796  -1.38366  -0.28972
C    -2.58938  -1.12300  -1.60171
H    -1.60982  -0.65603  -1.79413
C    -3.40844  -1.47772  -2.65741
H    -3.09868  -1.27905  -3.67249
C    -4.62246  -2.10085  -2.41049
H    -5.26080  -2.38226  -3.23473
C    -5.01133  -2.37832  -1.11006
H    -5.95090  -2.87674  -0.92137
C    -4.19720  -2.02533  -0.04790
H    -4.49598  -2.25600   0.96407
O     0.83028  -1.42109  -0.11681
