61

Mo    0.00000   0.00000   0.00000
N     0.55882  -1.26475  -1.04162
O     0.95177  -2.13815  -1.75874
N    -0.73627   1.65428   1.25253
N    -2.06576   1.87602   1.31909
C     1.33045   2.78066   2.14026
C    -0.13652   2.63502   1.93167
C    -1.10621   3.50559   2.43874
C    -2.31993   2.99457   2.02653
C    -3.68100   3.53428   2.27795
N    -1.60218  -1.10795   0.84107
N    -2.75862  -0.50567   1.16916
C    -0.58046  -3.36807   1.05757
C    -1.65801  -2.36852   1.27512
C    -2.88223  -2.57146   1.91427
C    -3.55814  -1.36695   1.82248
C    -4.91089  -1.02544   2.33183
N    -1.61774   0.55827  -1.35499
N    -2.81722   0.91801  -0.84785
C    -0.59606   0.32438  -3.62492
C    -1.70484   0.62907  -2.68667
C    -2.98992   1.04999  -3.03634
C    -3.66899   1.22039  -1.84452
C    -5.07621   1.64993  -1.63837
N     1.12265  -0.55103   1.45356
C     0.84540  -0.46217   2.87505
C     2.15888  -0.74894   3.60594
C     2.79948  -1.78026   2.68314
C     2.38163  -1.26547   1.30197
B    -3.06157   0.91675   0.66634
H     0.41253   0.50147   3.15318
H     0.10558  -1.23938   3.13993
H     2.77191   0.15316   3.64607
H     2.00094  -1.11253   4.61961
H     3.88003  -1.83981   2.79109
H     2.37732  -2.76955   2.87197
H     3.13703  -0.55920   0.92219
H     2.28656  -2.06745   0.56294
H    -4.17147   1.22038   0.91794
H    -1.00594   0.05813  -4.59653
H     0.04392   1.19872  -3.75231
H     0.02087  -0.49422  -3.26350
H    -3.36914   1.20563  -4.02547
H    -5.11970   2.55565  -1.03611
H    -5.64558   0.87539  -1.12706
H    -5.53732   1.84646  -2.60232
H    -0.23914  -3.34171   0.02483
H     0.27505  -3.17215   1.70193
H    -0.95771  -4.36361   1.27879
H    -3.22999  -3.47476   2.37256
H    -4.86511  -0.16785   3.00080
H    -5.58081  -0.77730   1.51024
H    -5.31917  -1.87476   2.87280
H     1.52595   3.02240   3.18503
H     1.71094   3.59979   1.52985
H     1.87225   1.87748   1.87143
H    -0.93512   4.38797   3.02060
H    -4.18146   3.76775   1.33972
H    -4.29305   2.81369   2.81800
H    -3.60323   4.44287   2.86895
O     1.02775   1.07274  -0.71794
