41

Ni    0.00000   0.00000   0.00000
N    -2.25188   0.46756  -0.13730
C    -2.70999  -0.25421   1.04528
C    -1.98727  -1.60776   1.11254
N    -0.53151  -1.42230   1.20406
C     0.18443  -2.69136   1.10315
C     1.70635  -2.56765   1.27528
C    -2.51575   1.89306  -0.15833
F     1.97468  -1.95770   2.46808
F     2.18673  -3.83971   1.42710
Cl    0.21586   1.34212   1.72655
H    -2.63373   0.03314  -0.97710
H    -2.44701   0.34087   1.92444
H    -3.79629  -0.42490   1.04737
H    -2.19475  -2.17080   0.19768
H    -2.35834  -2.18021   1.97277
H    -0.31885  -1.00274   2.11698
H    -0.00545  -3.13669   0.12232
H    -0.15775  -3.38781   1.88419
H    -2.19822   2.32890   0.79255
H    -3.57569   2.14051  -0.33094
N     2.25188  -0.46755   0.13730
N     0.53151   1.42230  -1.20406
C     2.51576  -1.89306   0.15835
C    -1.70634   2.56767  -1.27526
C     2.70999   0.25421  -1.04529
H     2.63374  -0.03313   0.97710
C     1.98727   1.60776  -1.11255
C    -0.18443   2.69136  -1.10314
H     0.31884   1.00275  -2.11698
H     2.19823  -2.32890  -0.79253
H     3.57569  -2.14050   0.33096
F    -1.97469   1.95773  -2.46806
F    -2.18672   3.83973  -1.42707
H     2.44700  -0.34088  -1.92445
H     3.79628   0.42489  -1.04738
H     2.19476   2.17080  -0.19769
H     2.35834   2.18020  -1.97278
H     0.00546   3.13668  -0.12231
H     0.15776   3.38782  -1.88417
O    -0.16207  -1.00776  -1.29640
