41

Pd    0.00000   0.00000   0.00000
I    -2.14530   1.43953  -0.42849
N    -0.31615   0.92367   2.78555
N     1.14572   2.36821   3.17199
C     1.34533   1.97866   1.88862
N    -0.34171  -1.05050  -1.67028
N     0.13819   1.73225   3.71809
C     2.39129   2.37742   0.96350
C     3.66747   2.76062   1.37306
H     3.91788   2.80007   2.42126
C     2.13437   2.27217  -0.40979
H     1.13031   2.00080  -0.76418
C     0.35785   1.01919   1.62791
C     3.12133   2.55739  -1.33112
H     2.90600   2.47859  -2.38758
C     4.39274   2.94577  -0.92234
C    -1.42538   0.04381   3.02457
H    -1.38302  -0.76909   2.28109
H    -2.36690   0.58734   2.91140
H    -1.35905  -0.36321   4.03229
C     4.64631   3.04108   0.44034
H     5.63175   3.32719   0.77846
C     1.82799   3.36522   3.94519
H     2.71007   2.94050   4.42822
H     1.14273   3.71576   4.71571
H     2.12401   4.19243   3.30150
C    -1.53636  -2.75360  -2.81445
H    -2.30587  -3.50866  -2.79070
C    -1.28082  -1.99042  -1.68962
H    -1.84841  -2.13119  -0.76913
C    -0.78953  -2.52339  -3.95952
H    -0.96561  -3.09846  -4.85576
C     0.38380  -0.82957  -2.76139
H     1.15253  -0.05983  -2.68647
C     5.45703   3.27001  -1.92223
H     5.27211   2.76430  -2.86669
H     6.43732   2.98010  -1.55105
H     5.47309   4.34433  -2.11076
C     0.18936  -1.54174  -3.93105
H     0.79543  -1.33203  -4.79813
O     1.27245  -0.97983   0.37856
