61

W     0.00000   0.00000   0.00000
P    -1.22888   0.92915  -1.87915
P     0.75843  -1.53494   1.72905
P    -0.77174   1.72137   1.49204
Si    3.90863  -1.12159  -2.26623
O     2.67739   1.57192   0.12226
O     0.81145  -1.64256  -1.53495
C     1.64562   1.02397   0.10903
C     1.28798  -0.51122  -1.52272
C     2.32128  -0.04804  -2.47308
C     5.25812  -0.35118  -3.37119
C     3.49459  -2.89525  -2.83408
C     4.45415  -1.10885  -0.44434
C    -1.53927  -0.34949  -3.15603
C    -0.56650   2.29139  -2.92145
C    -2.95836   1.50062  -1.64566
C    -0.47277  -2.02287   2.99859
C     2.21335  -1.22683   2.81357
C     1.15280  -3.19309   1.05521
C     0.16880   1.95771   3.05653
C    -0.70371   3.44875   0.87699
C    -2.47610   1.60361   2.14566
H     1.94960  -0.20385  -3.48833
H     2.53770   1.00920  -2.33878
H     4.95666  -0.31388  -4.41331
H     6.17041  -0.93492  -3.31552
H     5.49683   0.66057  -3.06002
H     3.42955  -2.96290  -3.91650
H     4.24725  -3.60663  -2.50720
H     2.53750  -3.21190  -2.42908
H     3.65785  -1.49482   0.18602
H     4.67420  -0.10035  -0.10720
H     5.33813  -1.71824  -0.28038
H    -0.59568  -0.71567  -3.55916
H    -2.15481   0.04764  -3.96446
H    -2.05520  -1.18057  -2.67394
H    -0.40605   3.17418  -2.30642
H    -1.25772   2.52857  -3.72991
H     0.39023   1.98679  -3.33905
H    -3.49987   0.71504  -1.12087
H    -3.42837   1.68769  -2.61168
H    -2.98202   2.41115  -1.04958
H    -1.36807  -2.37469   2.48847
H    -0.07319  -2.81199   3.63633
H    -0.73902  -1.16023   3.60823
H     1.96467  -0.45656   3.53977
H     2.49701  -2.13912   3.33749
H     3.05012  -0.87268   2.21750
H     1.99162  -3.12505   0.36374
H     0.27991  -3.53969   0.50075
H     1.38750  -3.89597   1.85583
H    -0.19690   2.82389   3.60779
H     0.07158   1.06727   3.67485
H     1.21802   2.09817   2.80153
H    -1.32350   3.54883  -0.01091
H     0.32965   3.66245   0.60860
H    -1.03986   4.14783   1.64249
H    -2.58712   0.63626   2.63352
H    -3.17838   1.64079   1.31598
H    -2.68071   2.40902   2.85138
O    -1.42724  -0.81618   0.13904
