34

Ti    0.00000   0.00000   0.00000
Cl   -0.91829  -0.66267  -1.85680
O    -1.36303   0.24217   0.96544
C     1.96187   0.87478   0.79913
C     2.11202   0.65272  -0.60107
C     1.18670   1.48605  -1.28120
C     0.43262   2.19895  -0.30201
C     0.92152   1.83046   0.98517
C     2.86344   0.30204   1.85486
C     3.15682  -0.22631  -1.22578
C     1.09975   1.71514  -2.76112
C    -0.62428   3.21385  -0.63424
C     0.40520   2.29111   2.31939
C    -0.47896   1.21700   2.97702
C    -1.71835   0.89627   2.12417
H     2.66481   0.75265   2.82493
H     3.90504   0.49399   1.59220
H     2.72892  -0.77807   1.94036
H     3.36220  -1.08463  -0.58594
H     2.82546  -0.59217  -2.19763
H     4.08700   0.32966  -1.36788
H     1.67474   2.60441  -3.03199
H     1.50064   0.86675  -3.31213
H     0.06643   1.86492  -3.07162
H    -1.02429   3.67939   0.26459
H    -1.44876   2.74435  -1.17788
H    -0.20467   3.99771  -1.26762
H     1.24637   2.51148   2.98367
H    -0.17366   3.21146   2.20384
H    -0.80365   1.55681   3.96284
H     0.09396   0.28703   3.08868
H    -2.40560   0.25584   2.70238
H    -2.25311   1.82871   1.86664
O     0.51035  -1.47909   0.52376
