70

Zn    0.00000   0.00000   0.00000
O     1.31352   1.28519  -2.30757
H     1.77194   0.31864  -2.10114
O     2.16751  -0.98547  -1.64015
N     0.12621   1.22980  -1.64849
N     1.27251  -1.32813  -0.73037
N    -2.03379   0.74189  -0.31412
H    -2.39592   0.17545  -1.07955
N    -0.96467  -1.88319   0.52440
H    -1.44311  -2.23115  -0.30640
C    -0.61367   2.26426  -1.58148
C    -1.93565   2.12057  -0.85261
C    -1.93847   3.17290   0.26644
H    -2.91071   3.18751   0.76181
H    -1.17813   2.88895   0.99577
C    -1.62734   4.57307  -0.25706
H    -1.65728   5.27057   0.57942
H    -2.39736   4.89124  -0.96396
C    -0.25777   4.63399  -0.94588
H    -0.14484   5.63556  -1.38465
C    -0.25713   3.61828  -2.10240
H    -0.98913   3.93737  -2.84804
H     0.71946   3.57242  -2.58323
C     0.87892   4.46380   0.04231
C     0.83022   5.39628   1.22281
H     1.81744   5.49140   1.66659
H     0.16008   5.00977   1.99036
H     0.48307   6.38570   0.92776
C     1.88610   3.61810  -0.09722
H     1.99748   2.93310  -0.91620
H     2.66820   3.57634   0.64222
C    -3.09764   2.33213  -1.83700
H    -3.00366   1.64782  -2.67944
H    -3.11734   3.34330  -2.22830
H    -4.04698   2.14765  -1.33693
C    -2.91148   0.53560   0.83823
H    -3.88096   1.03371   0.69520
H    -2.42335   0.95825   1.71729
C    -3.17449  -0.95065   1.08068
H    -3.55654  -1.41146   0.16336
H    -3.95871  -1.02785   1.83597
C    -1.96411  -1.73820   1.58206
H    -1.50892  -1.19902   2.41380
H    -2.31151  -2.71751   1.93930
C     0.15361  -2.82863   0.76097
C     1.21136  -2.53141  -0.28472
C     2.18984  -3.58691  -0.69953
H     2.99699  -3.61496   0.04017
H     2.63141  -3.26340  -1.64561
C     1.58808  -4.98797  -0.82108
H     2.41568  -5.70541  -0.87145
C     0.78123  -5.28540   0.45099
H     1.44749  -5.24874   1.31417
H     0.35803  -6.29083   0.40333
C    -0.34863  -4.27804   0.62063
H    -0.99618  -4.34524  -0.25920
H    -0.94184  -4.54350   1.49893
C     0.74507  -5.19271  -2.05927
C     0.61454  -6.62277  -2.49592
H    -0.06951  -6.71394  -3.33548
H     0.25253  -7.24847  -1.68116
H     1.58751  -7.00832  -2.79987
C     0.15733  -4.21139  -2.72487
H    -0.43581  -4.40832  -3.60320
H     0.26351  -3.17705  -2.45192
C     0.76634  -2.59075   2.14387
H     0.97111  -1.53214   2.28261
H     1.70537  -3.12968   2.22913
H     0.10152  -2.93111   2.93441
O     0.31007   0.78211   1.41939
