25

Pt    0.00000   0.00000   0.00000
Br    1.40230   1.85902   0.49918
N    -0.06509   0.64529  -1.93042
N    -1.19648  -1.57867  -0.47708
C     0.46115  -0.07415  -2.92128
H     0.86256  -1.04587  -2.65925
C     0.51761   0.38505  -4.22327
H     0.96348  -0.22846  -4.98967
C     0.00412   1.64013  -4.51626
H     0.03879   2.02947  -5.52182
C    -0.54612   2.38368  -3.48362
H    -0.95254   3.36665  -3.65810
C    -0.55626   1.85387  -2.20682
H    -0.95559   2.41794  -1.37313
C    -2.44992  -1.39411  -0.89097
H    -2.77085  -0.36923  -1.03507
C    -3.32022  -2.44360  -1.11471
H    -4.32936  -2.24403  -1.43775
C    -2.87577  -3.74130  -0.90671
H    -3.53312  -4.58170  -1.06603
C    -1.56970  -3.92953  -0.48187
H    -1.17809  -4.91738  -0.30099
C    -0.76578  -2.82427  -0.27381
H     0.25112  -2.93459   0.08157
O     0.01977  -0.54883   1.55592
