55

Rh    0.00000   0.00000   0.00000
O     3.63344   2.93651   2.20319
N     1.87462   1.78161   1.33788
N    -0.08102   2.83906   0.70395
C     0.63296   1.69943   0.80380
C     2.48783   2.94396   1.80322
C     1.63377   4.12739   1.77451
C     0.35473   4.05131   1.20831
C    -0.43530   5.20611   1.19079
H    -1.42902   5.18923   0.77561
C     0.04883   6.38624   1.71564
H    -0.57610   7.26661   1.69387
C     1.32252   6.45822   2.26874
H     1.68705   7.39015   2.67127
C     2.10996   5.32979   2.29654
H     3.10475   5.33740   2.71481
C     2.70980   0.58780   1.34817
H     3.74579   0.92919   1.23813
H     2.44090  -0.02586   0.47454
C    -1.33046   2.81744  -0.03388
H    -1.42399   1.83707  -0.52104
H    -1.31001   3.58380  -0.80915
H    -2.18098   2.98390   0.63007
C    -1.61677  -0.30437   1.34935
H    -1.83774   0.60456   1.91018
C    -0.53389  -1.06568   1.78408
H     0.02990  -0.67648   2.62806
C    -0.45069  -2.56939   1.63118
H     0.11879  -2.97257   2.47088
H    -1.45686  -2.98779   1.69131
C     0.23464  -3.00156   0.32016
H    -0.15230  -3.97476  -0.00166
H     1.30329  -3.12605   0.50693
C     0.06401  -2.00743  -0.80490
H     0.87484  -2.01438  -1.53417
C    -1.13539  -1.44556  -1.18034
H    -1.20328  -1.00916  -2.17666
C    -2.45848  -1.80103  -0.54021
H    -3.24524  -1.74931  -1.29559
H    -2.41637  -2.83240  -0.18825
C    -2.82183  -0.85397   0.61897
H    -3.46957  -1.37196   1.33516
H    -3.39393  -0.01061   0.22233
C     2.59834  -0.22840   2.60883
C     2.95251  -1.57214   2.56757
H     3.29577  -1.99976   1.63676
C     2.87189  -2.35728   3.70235
H     3.14726  -3.40092   3.65577
C     2.43580  -1.80817   4.89686
H     2.36774  -2.42055   5.78371
C     2.09216  -0.46901   4.94899
H     1.75795  -0.03176   5.87848
C     2.17510   0.31815   3.81273
H     1.90677   1.36318   3.87129
O     0.76194   0.60698  -1.33173
