61

Rh    0.00000   0.00000   0.00000
O     1.86477  -5.99606   2.54331
N    -0.12697  -1.90108  -0.62268
C    -2.57841   2.61495  -4.09282
H    -2.46244   3.53344  -3.53504
C    -3.19022   2.61884  -5.31486
H    -3.56363   3.54175  -5.73454
C    -3.34336   1.42390  -6.03788
H    -3.83040   1.44694  -7.00180
C    -2.88245   0.24599  -5.52398
H    -2.99727  -0.67757  -6.07377
C    -2.24392   0.20647  -4.26404
C    -1.77339  -0.98960  -3.70282
H    -1.92013  -1.92151  -4.23175
C    -1.14026  -0.97827  -2.47600
C    -0.94965   0.23693  -1.74717
C    -1.45249   1.39702  -2.26947
H    -1.39042   2.32843  -1.72207
C    -2.08763   1.41760  -3.53197
C    -0.66709  -2.12832  -1.77538
H    -0.79706  -3.13917  -2.15370
C     0.36107  -2.93842   0.17648
C     1.15928  -3.95555  -0.35172
H     1.41652  -3.94453  -1.40121
C     1.64678  -4.94859   0.46802
H     2.27499  -5.73309   0.07672
C     1.33618  -4.96620   1.83011
C     0.53427  -3.95609   2.35584
H     0.27011  -3.94394   3.40140
C     0.06111  -2.94942   1.53712
H    -0.57345  -2.16990   1.93825
C     1.57607  -6.08253   3.91822
H     0.50102  -6.18265   4.09758
H     1.95739  -5.21396   4.46479
H     2.08428  -6.97900   4.26964
C     2.12341   0.53294  -0.11342
C     1.36768   1.74694  -0.16627
C     0.60696   1.82028   1.03442
C     1.05429   0.74840   1.91563
C     1.98996  -0.02321   1.22173
C     3.17671   0.13210  -1.10014
H     2.89749   0.42829  -2.10906
H     3.34032  -0.94374  -1.08661
H     4.12072   0.62121  -0.84940
C     1.48793   2.78614  -1.23819
H     1.40509   2.35186  -2.23294
H     2.46516   3.26594  -1.15662
H     0.72474   3.55208  -1.13193
C    -0.23817   2.96487   1.50449
H    -0.54346   3.59836   0.67528
H     0.32515   3.57168   2.21626
H    -1.13412   2.59760   2.00171
C     0.63006   0.62379   3.34444
H    -0.45669   0.61253   3.41952
H     0.99992   1.47760   3.91481
H     1.01901  -0.28755   3.79213
C     2.84419  -1.12914   1.75817
H     2.97510  -1.92428   1.02603
H     2.41273  -1.56401   2.65618
H     3.83144  -0.73341   2.00609
O    -1.50430  -0.11597   0.66794
