65

Ti    0.00000   0.00000   0.00000
Cl   -0.08856   0.20240  -2.28997
O     0.26068  -1.66677   0.05239
O     1.49702   0.76998   0.17510
O    -0.88256   2.02784  -0.13303
O    -2.17183  -0.48122  -0.24251
C     0.85168  -2.85833   0.07379
C     0.55286  -3.79962  -0.92817
C     1.18276  -5.03311  -0.89870
C     2.08951  -5.34544   0.09871
C     2.37732  -4.41690   1.08419
C     1.77228  -3.17077   1.09179
C    -0.43349  -3.43979  -2.00007
C     2.07715  -2.14843   2.14472
C     2.79693   0.89680   0.42651
C     3.73941   0.21112  -0.36278
C     5.08572   0.35335  -0.06872
C     5.50745   1.15412   0.97878
C     4.57671   1.83142   1.74688
C     3.22086   1.71973   1.48581
C     3.26010  -0.65112  -1.49144
C     2.19231   2.44715   2.30028
C    -0.24604   3.04989  -0.92270
C    -0.85544   4.38724  -0.49833
C    -2.20468   3.95764   0.07071
C    -1.82180   2.64932   0.75091
C    -3.01378  -0.22189  -1.37205
C    -4.40835  -0.66661  -0.94854
C    -4.07608  -1.91522  -0.13676
C    -2.78449  -1.50118   0.56863
H     0.95837  -5.75555  -1.67042
H     2.57215  -6.31107   0.10791
H     3.08590  -4.65960   1.86293
H     5.81214  -0.17395  -0.67023
H     6.56066   1.25045   1.19544
H     4.90438   2.45694   2.56486
H    -0.25709  -2.42004  -2.34889
H    -1.45215  -3.49243  -1.60897
H    -0.35366  -4.12419  -2.84110
H     2.65080  -2.59120   2.95539
H     1.15315  -1.72898   2.54954
H     2.65866  -1.32479   1.71896
H     2.63113  -0.07268  -2.17220
H     2.65711  -1.48096  -1.10941
H     4.10042  -1.06017  -2.04720
H     1.36629   1.77773   2.54936
H     1.78621   3.28712   1.73164
H     2.62960   2.83242   3.21799
H    -0.45146   2.82856  -1.97787
H     0.83786   3.00555  -0.75958
H    -0.94232   5.07637  -1.33496
H    -0.25357   4.85560   0.28141
H    -2.91741   3.77588  -0.73552
H    -2.62769   4.67851   0.76569
H    -2.65830   1.96152   0.89915
H    -1.34491   2.83713   1.72273
H    -2.66142  -0.80401  -2.23421
H    -2.94015   0.84135  -1.61587
H    -5.05473  -0.86629  -1.79938
H    -4.87580   0.08711  -0.31272
H    -3.89806  -2.75891  -0.80478
H    -4.85506  -2.18765   0.57126
H    -2.07946  -2.33217   0.69143
H    -2.98660  -1.06532   1.55561
O    -0.48341   0.12210   1.57287
