37

Pt    0.00000   0.00000   0.00000
N    -0.53525  -1.84993  -1.23684
C    -1.05418  -1.79913  -2.44776
C    -1.35356  -2.97530  -3.15693
C    -1.10703  -4.19800  -2.58769
C    -0.55499  -4.25918  -1.29677
C    -0.28377  -3.03053  -0.65887
C    -0.26644  -5.47863  -0.62317
C    -1.30419  -0.44898  -3.02061
C    -0.28321   1.96982  -0.64790
H    -1.77681  -2.90185  -4.14676
H    -1.33066  -5.11376  -3.11558
H    -0.48351  -6.40583  -1.13271
H    -1.74452  -0.50736  -4.01171
H    -0.36153   0.09712  -3.07239
H    -1.97075   0.10284  -2.35685
H     0.34877   2.22659  -1.49360
H    -1.33314   2.22629  -0.76007
Cl   -2.14411  -0.08542   0.93439
N     0.53369  -1.84994   1.23746
C     0.28155   1.96987   0.64852
C     0.28228  -3.03053   0.65945
C     0.26503  -5.47863   0.62371
C     1.05283  -1.79914   2.44829
H    -0.35056   2.22632   1.49426
H     1.33143   2.22673   0.76076
C     0.55359  -4.25918   1.29731
H     0.48211  -6.40583   1.13325
C     1.35229  -2.97530   3.15742
C     1.30314  -0.44898   3.02102
C     1.10568  -4.19800   2.58822
H     1.77565  -2.90186   4.14721
H     1.74363  -0.50735   4.01206
H     0.36056   0.09723   3.07294
H     1.96966   0.10273   2.35710
H     1.32932  -5.11376   3.11610
O     1.51160  -0.06001  -0.65877
