56

Rh    0.00000   0.00000   0.00000
N    -1.36047  -1.18356   0.71565
N    -1.06829  -2.18147   1.44805
C    -2.70719  -1.00965   0.38875
C    -3.23090   0.27831   0.27450
H    -2.59699   1.13009   0.48746
C    -4.55890   0.45112  -0.06039
H    -4.96184   1.45109  -0.13434
C    -5.38815  -0.63975  -0.29707
C    -4.85769  -1.92078  -0.16725
H    -5.49350  -2.77726  -0.34001
C    -3.53729  -2.11248   0.18051
H    -3.12255  -3.10349   0.28629
C    -6.81982  -0.45274  -0.69298
H    -7.13876   0.57360  -0.53096
H    -7.46567  -1.11700  -0.12203
H    -6.95034  -0.68991  -1.74933
C     0.25950  -2.24372   1.72618
C     0.81701  -3.21770   2.56179
H     0.17903  -3.97869   2.98317
C     2.16047  -3.16264   2.84238
H     2.60721  -3.90529   3.48785
C     2.96448  -2.13954   2.32778
C     2.40344  -1.17442   1.49974
H     3.02788  -0.37066   1.13131
C     1.06274  -1.22514   1.15859
C     4.42316  -2.10010   2.66443
H     4.57716  -2.30787   3.72168
H     4.85269  -1.12938   2.42996
H     4.95946  -2.86026   2.09456
C     0.21055  -0.51953  -2.11526
C     1.43055   0.13095  -1.71142
C     1.08912   1.44194  -1.30450
C    -0.31487   1.66287  -1.62032
C    -0.83676   0.48091  -2.15676
C     0.13379  -1.85547  -2.79041
H     0.33837  -1.73904  -3.85706
H    -0.85612  -2.29472  -2.68218
H     0.86571  -2.54608  -2.37692
C     2.80107  -0.45661  -1.85647
H     3.53901   0.12231  -1.30742
H     3.07990  -0.44977  -2.91218
H     2.83647  -1.48555  -1.50307
C     2.02242   2.54548  -0.91080
H     3.00085   2.15715  -0.63859
H     1.62478   3.09738  -0.06069
H     2.14425   3.24085  -1.74367
C    -0.98090   2.99701  -1.50728
H    -2.04667   2.92519  -1.71081
H    -0.53672   3.69209  -2.22206
H    -0.84299   3.40879  -0.50810
C    -2.17121   0.27795  -2.80444
H    -2.88097   1.04306  -2.50083
H    -2.59371  -0.69440  -2.55635
H    -2.05478   0.32777  -3.88921
O    -0.10084   1.03489   1.28115
