54

Co    0.00000   0.00000   0.00000
P    -0.88581   2.15326  -0.07965
P    -1.30428  -0.79136  -1.60819
S     0.68422  -2.17468   0.26678
P     1.53115   0.48905   1.52600
C    -1.35200  -1.67367   1.91317
C    -1.29773  -0.34601   1.32185
C    -0.43771  -2.64100   1.47628
C    -2.28977  -1.99542   2.89800
H    -2.98530  -1.23379   3.22036
C    -1.39873  -4.22244   2.99595
H    -1.42284  -5.21469   3.42278
C    -0.46768  -3.92345   2.02662
H     0.24105  -4.66181   1.68287
C    -0.10506   3.31713  -1.27441
H    -0.17542   2.92251  -2.28606
H     0.95324   3.43377  -1.04947
H    -0.59630   4.28908  -1.22735
C     2.91756  -0.67419   1.77464
H     3.36383  -0.91634   0.81026
H     2.56399  -1.59281   2.24045
H     3.65942  -0.19468   2.41490
C    -2.65014   2.41729  -0.52602
H    -2.81462   3.48983  -0.63636
H    -3.27580   2.03580   0.27701
H    -2.91535   1.91937  -1.45524
C     0.95621   0.63775   3.26280
H     0.56976  -0.33126   3.58174
H     0.15630   1.37029   3.34537
H     1.78858   0.92256   3.90703
C    -2.31116  -3.26284   3.43501
H    -3.03338  -3.51658   4.19641
C    -0.87397   3.22376   1.41520
H    -1.23839   4.21019   1.12688
H     0.12248   3.32228   1.83762
H    -1.54055   2.79655   2.15978
C     2.52835   2.01452   1.30272
H     2.97578   2.29489   2.25695
H     1.93638   2.84115   0.91832
H     3.31223   1.79209   0.57886
O    -2.04703   0.56067   1.63431
C    -3.03868  -1.18143  -1.15088
H    -3.59063  -1.51219  -2.03117
H    -3.52836  -0.31593  -0.70974
H    -3.02660  -1.98346  -0.41149
C    -1.50571   0.20182  -3.13921
H    -2.38579  -0.14760  -3.67987
H    -0.61508   0.05028  -3.74860
H    -1.60050   1.26470  -2.93370
C    -0.84735  -2.37098  -2.40414
H    -0.98421  -3.19949  -1.71081
H     0.19886  -2.33369  -2.70751
H    -1.48117  -2.51169  -3.28090
O     1.16524   0.22776  -1.14579
