54

Co    0.00000   0.00000   0.00000
P     0.86386  -2.15263   0.01104
S    -0.67021   2.19736  -0.20658
P     1.27994   0.73558   1.65452
P    -1.65832  -0.45953  -1.39782
O     1.98580  -0.54384  -1.72490
C     1.25827   0.36259  -1.36141
C     0.42368   2.67164  -1.43946
C     1.31207   1.70311  -1.92448
C     0.45456   3.96546  -1.96305
H    -0.23421   4.70467  -1.58274
C     0.75257   2.24978   2.53184
H     1.36907   2.37046   3.42306
H    -0.29386   2.14789   2.81853
H     0.85842   3.11990   1.88673
C     3.00381   1.20213   1.22643
H     3.54385   1.51555   2.11981
H     2.96995   2.02930   0.51674
H     3.51999   0.36827   0.75533
C     0.79002  -3.20113  -1.49802
H     1.15135  -4.19640  -1.23859
H     1.43536  -2.76754  -2.25705
H    -0.22002  -3.28050  -1.89030
C    -1.23972  -0.55396  -3.18325
H    -2.12411  -0.81163  -3.76588
H    -0.45691  -1.28996  -3.35360
H    -0.86914   0.42080  -3.50187
C     1.36073   4.27499  -2.95239
H     1.38526   5.27625  -3.35776
C     2.22467   2.03576  -2.92923
H     2.90052   1.27307  -3.28827
C     2.64055  -2.44109   0.38947
H     2.94518  -1.95870   1.31381
H     3.23837  -2.05043  -0.42933
H     2.80067  -3.51565   0.47752
C    -2.63451  -1.99125  -1.13455
H    -3.28448  -2.14893  -1.99568
H    -3.23729  -1.84477  -0.23850
H    -2.00637  -2.86535  -0.98875
C     2.24760   3.31438  -3.43884
H     2.95091   3.57636  -4.21505
C    -3.06327   0.70739  -1.46463
H    -2.75728   1.64595  -1.92293
H    -3.40813   0.90572  -0.45001
H    -3.86710   0.25430  -2.04564
C     1.50885  -0.32622   3.13417
H     1.78784  -1.34421   2.87832
H     0.55983  -0.34999   3.66939
H     2.27908   0.11349   3.76830
C     0.09534  -3.30501   1.22239
H     0.55912  -4.28921   1.15899
H    -0.97177  -3.38833   1.02761
H     0.20469  -2.91120   2.23051
O    -1.11499  -0.27584   1.18457
