69

Pd    0.00000   0.00000   0.00000
S    -0.76835  -0.46096   2.14882
P    -0.01745   2.18605   0.39115
C    -2.10866  -2.61228   0.54447
C    -2.22075  -1.37287   1.60516
B    -2.89740  -1.15847   0.02652
H    -2.30825  -0.46587  -0.74461
B    -3.54008  -2.74781  -0.39691
H    -3.40504  -3.12776  -1.50130
B    -3.26912  -3.85399   0.94878
H    -3.00042  -4.97967   0.75123
B    -2.38124  -2.98883   2.19731
H    -1.45847  -3.41737   2.78358
B    -3.73510  -0.57115   1.45030
H    -3.74079   0.58279   1.66386
B    -4.61930  -1.44527   0.17440
H    -5.37511  -0.90060  -0.54125
B    -4.85737  -3.11532   0.75159
H    -5.78550  -3.75855   0.42684
B    -4.11800  -3.26432   2.37881
H    -4.52368  -3.99795   3.20167
B    -3.41755  -1.68597   2.78379
H    -3.21927  -1.25258   3.85603
B    -4.96262  -1.76291   1.90225
H    -5.96999  -1.43227   2.40860
C    -0.79076  -2.97077  -0.03729
N     0.16579  -2.04092  -0.16992
C     1.38046  -2.37947  -0.60330
H     2.11518  -1.57751  -0.65918
C     1.70736  -3.66422  -0.98548
H     2.70051  -3.89296  -1.33523
C     0.71408  -4.63157  -0.92835
H     0.90832  -5.64324  -1.25057
C    -0.52968  -4.28501  -0.44284
H    -1.30678  -5.02623  -0.38349
C     0.59439   3.37644  -0.84125
C     1.86373   3.11442  -1.35017
H     2.38634   2.22127  -1.02739
C     2.43138   3.97094  -2.27219
H     3.41141   3.76089  -2.67400
C     1.73622   5.09633  -2.68762
H     2.17554   5.76436  -3.41376
C     0.47773   5.36328  -2.17644
H    -0.06258   6.24102  -2.50030
C    -0.09748   4.50732  -1.25241
H    -1.08185   4.71784  -0.85827
C     1.11728   2.58496   1.75550
C     2.01786   1.60411   2.15862
H     1.98106   0.61787   1.68392
C     2.94255   1.87666   3.15052
H     3.63785   1.11388   3.46845
C     2.97464   3.13176   3.73619
H     3.69223   3.34473   4.51463
C     2.09479   4.11899   3.32002
H     2.13228   5.09999   3.77062
C     1.17220   3.85288   2.32512
H     0.49569   4.62403   1.98277
C    -1.67465   2.77103   0.82974
C    -2.06368   3.16108   2.10442
H    -1.34383   3.17267   2.90989
C    -3.38208   3.51433   2.33855
H    -3.68608   3.81713   3.32954
C    -4.31201   3.46896   1.31321
H    -5.33845   3.74280   1.50479
C    -3.93330   3.04969   0.04653
H    -4.66397   2.99025  -0.74569
C    -2.62076   2.69288  -0.19337
H    -2.30816   2.34408  -1.17224
O     0.43386   0.17198  -1.58262
