41

Cd    0.00000   0.00000   0.00000
Se   -0.34442  -2.51626  -1.10825
Se    1.73844  -0.35075   2.18450
Cl   -1.71116   1.44826   0.86216
N     2.02257  -1.65477  -2.41749
H     1.86361  -0.64702  -2.17782
N     1.69050  -3.81955  -2.60168
N     0.19487   1.82766   3.13370
H    -0.51778   1.73956   2.37264
N     1.96651   1.44160   4.37585
C     1.20542  -2.66551  -2.08461
C     3.06015  -2.14702  -3.16627
C     4.15273  -1.52701  -3.75112
H     4.30072  -0.46430  -3.65394
C     5.02638  -2.33266  -4.45708
H     5.88952  -1.88992  -4.92946
C     4.82108  -3.70662  -4.57647
H     5.53012  -4.29629  -5.13701
C     3.73352  -4.33361  -3.99597
H     3.57940  -5.39632  -4.09275
C     2.85199  -3.53272  -3.28662
C     1.11053  -5.12623  -2.47552
H     0.81480  -5.50318  -3.45613
H     0.23022  -5.05732  -1.83656
H     1.83137  -5.81222  -2.02827
C     1.27701   1.04707   3.27778
C     0.16959   2.75021   4.14783
C    -0.72438   3.76477   4.45014
H    -1.58798   3.94100   3.83036
C    -0.45272   4.52477   5.57260
H    -1.12428   5.32400   5.84527
C     0.66891   4.28396   6.36508
H     0.84076   4.90285   7.23239
C     1.56669   3.27393   6.06972
H     2.43233   3.09318   6.68674
C     1.30134   2.50623   4.94625
C     3.18014   0.86378   4.87863
H     3.96468   1.62099   4.92272
H     3.48715   0.06109   4.20774
H     3.01608   0.45624   5.87788
O     0.92821   0.78510  -1.11559
