41

Cd    0.00000   0.00000   0.00000
I    -1.31184  -0.45010  -2.33488
Se    0.14959  -2.58016   1.48952
Se    2.98760  -0.59779  -0.79277
N     2.48069  -1.37990   2.51660
H     3.00126  -1.61781   1.68186
N     0.78877  -1.18140   3.89401
N     1.84669  -2.00092  -2.95666
H     0.89132  -1.81083  -2.65314
N     4.03353  -1.89607  -3.08295
C     1.17522  -1.66688   2.69978
C     2.94314  -0.65308   3.58563
C     4.17356  -0.08120   3.85906
H     4.99491  -0.16898   3.16642
C     4.28578   0.61926   5.04551
H     5.22471   1.08878   5.29390
C     3.21164   0.74461   5.92463
H     3.34301   1.30861   6.83469
C     1.97955   0.17798   5.65629
H     1.14801   0.29232   6.33185
C     1.85814  -0.52692   4.46954
C    -0.54032  -1.21583   4.43489
H    -0.52054  -1.62537   5.44479
H    -1.16340  -1.84770   3.80211
H    -0.95522  -0.20577   4.46082
C     2.95573  -1.54266  -2.34979
C     2.19545  -2.64311  -4.11855
C     1.43790  -3.25859  -5.10065
H     0.36283  -3.29143  -5.03505
C     2.12804  -3.81338  -6.16278
H     1.57787  -4.29898  -6.95325
C     3.51867  -3.75884  -6.24121
H     4.01420  -4.20504  -7.08940
C     4.28072  -3.14485  -5.26392
H     5.35587  -3.10310  -5.33199
C     3.59723  -2.58290  -4.19732
C     5.40499  -1.59585  -2.78634
H     5.84219  -1.00853  -3.59527
H     5.97363  -2.51894  -2.66301
H     5.44664  -1.02047  -1.86224
O     0.09436   1.12742   1.20105
