40

Cd    0.00000   0.00000   0.00000
I     2.14544  -0.30315  -1.61348
Se   -0.27484   3.05121   0.57095
N     1.26588  -0.17889   2.09498
N     2.87131  -0.74403   3.52543
N     1.15418   2.84904   2.97595
H     0.29406   2.82128   3.50156
N     2.49506   2.89939   1.23954
C     2.50881  -0.56226   2.24043
H     3.19116  -0.72200   1.42467
C     0.75195  -0.10285   3.37083
C    -0.51346   0.26739   3.81869
H    -1.29738   0.53150   3.12395
C    -0.72594   0.26835   5.18043
H    -1.69668   0.54294   5.56340
C     0.28136  -0.08602   6.08303
H     0.06306  -0.07417   7.13990
C     1.54093  -0.45346   5.65715
H     2.31626  -0.72821   6.35502
C     1.76460  -0.45488   4.28778
C     4.15399  -1.16047   4.01412
H     4.81623  -1.34826   3.17164
H     4.05315  -2.07512   4.60113
H     4.58616  -0.37961   4.64338
C     1.19875   2.92832   1.62205
C     2.42574   2.70914   3.47224
C     2.91446   2.54867   4.75676
H     2.25255   2.52378   5.60724
C     4.28611   2.41735   4.89451
H     4.70589   2.29247   5.88091
C     5.13717   2.44739   3.79227
H     6.19985   2.34073   3.94615
C     4.65535   2.61271   2.50522
H     5.31729   2.63734   1.65530
C     3.28353   2.74331   2.35774
C     2.99180   3.06757  -0.09809
H     2.14900   3.14339  -0.78411
H     3.60834   2.21617  -0.38625
H     3.58426   3.98170  -0.16143
O    -1.38187  -0.83784   0.33311
