44

Zn    0.00000   0.00000   0.00000
Cl    1.14320   1.44447   1.18580
N     1.21463  -0.82740  -1.48647
N    -0.16972  -4.07116   0.93472
C     0.72990  -1.73304  -2.30191
N     0.02154  -1.86354   0.89173
C     1.14482  -1.60684   3.12138
H     1.24184  -0.53421   3.07552
C    -0.57994  -2.36915  -2.21897
C     4.76083  -0.09537  -3.41034
H     5.68108   0.07035  -3.94985
C    -1.11103  -2.90712  -1.03862
C    -0.39532  -2.92445   0.23853
N     1.58214  -1.98180  -3.33487
H     1.42210  -2.63125  -4.08732
C     0.44287  -3.71043   2.11356
C    -1.33625  -2.42978  -3.38950
H    -0.94090  -1.99243  -4.29454
C     2.43761  -0.45302  -1.98470
C    -2.38735  -3.46623  -1.06290
H    -2.80942  -3.84696  -0.14464
C     3.36143   0.47112  -1.50892
H     3.16214   1.02828  -0.60761
C    -2.60297  -2.97876  -3.39473
H    -3.18050  -2.98894  -4.30608
C    -0.44223  -5.42292   0.53285
H    -1.24536  -5.84823   1.13931
H     0.45443  -6.03079   0.66726
H    -0.73763  -5.44401  -0.51460
C     3.85440  -1.01755  -3.89403
H     4.04093  -1.57706  -4.79790
C     0.89988  -4.44862   3.19565
H     0.80719  -5.52322   3.23058
C     1.47442  -3.73991   4.23137
H     1.83983  -4.27440   5.09522
C     4.51788   0.63309  -2.24212
H     5.25977   1.34245  -1.90915
C     2.68787  -1.18457  -3.16435
C     0.55876  -2.30706   2.07287
C     1.59587  -2.34777   4.19292
H     2.05656  -1.84333   5.02822
C    -3.13398  -3.49369  -2.22471
H    -4.13119  -3.90551  -2.21326
O    -1.45626   0.17332  -0.75615
