49

Ti    0.00000   0.00000   0.00000
Cl   -0.78972  -1.97081   0.50427
Cl    1.90970  -0.25763   1.12022
P    -2.16973   1.31054   0.52604
Si   -0.77824   1.10847   3.16763
Si   -2.42868   0.63590  -2.38060
N    -0.89526   0.98051   1.44308
N    -1.60516   0.72949  -0.85916
O    -3.58004   0.75116   1.00532
C    -3.76535  -0.65413   1.11440
H    -4.82063  -0.80422   1.34426
H    -3.14487  -1.06581   1.91445
H    -3.50762  -1.15519   0.17717
O    -2.61174   2.84347   0.51008
C    -1.61027   3.79310   0.17659
H    -2.05700   4.77646   0.32451
H    -1.29955   3.67058  -0.86419
H    -0.73621   3.67017   0.82237
N     0.94400   2.11443  -0.58082
C     2.01617   1.90338  -0.94025
C     3.34390   1.64013  -1.38398
H     3.80886   2.54758  -1.76645
H     3.29359   0.87895  -2.16512
H     3.91508   1.24361  -0.54296
C    -2.39803   1.83766   3.86663
H    -2.76861   2.63584   3.23074
H    -2.24710   2.24089   4.86221
H    -3.17929   1.08667   3.93101
C     0.69853   2.27794   3.50828
H     1.56188   1.97067   2.92259
H     0.97775   2.24247   4.55554
H     0.47508   3.31295   3.26152
C    -0.46016  -0.64542   3.85824
H     0.40535  -1.08805   3.36875
H    -1.30107  -1.31710   3.69733
H    -0.25766  -0.61550   4.92371
C    -4.11459   1.52079  -2.25574
H    -4.72333   1.10284  -1.46030
H    -4.66996   1.43412  -3.18349
H    -3.98748   2.57742  -2.04174
C    -1.30858   1.51462  -3.65884
H    -0.33035   1.04190  -3.68458
H    -1.16344   2.56742  -3.42815
H    -1.73741   1.44872  -4.65285
C    -2.65479  -1.22219  -2.78421
H    -1.82490  -1.80091  -2.37876
H    -2.67383  -1.38344  -3.85672
H    -3.57639  -1.63088  -2.37635
O     0.67355  -0.51283  -1.41627
