34

Pt    0.00000   0.00000   0.00000
S     0.85047  -2.14129  -1.26619
Cl    2.21431   0.84492   0.16513
Cl   -2.17583  -0.89647  -0.02678
N     0.15723  -0.61919   2.74320
C    -0.44191   0.59601   2.70995
C    -0.65352   1.22681   1.45913
N     0.43189  -1.09942   1.60932
C     1.46121  -2.83318   0.26900
C     1.57057  -2.93759   2.68288
C     1.13130  -2.28813   1.51996
C    -1.43755   2.48832   3.79390
C     2.32761  -4.08436   2.60109
C     2.22262  -3.99054   0.20527
C     2.41616  -1.69194  -2.07945
C    -0.84312   1.25058   3.88252
C    -1.65148   3.10585   2.55994
C    -1.25462   2.45341   1.38564
C     2.66333  -4.61028   1.35987
C    -2.30170   4.44465   2.46500
H     3.00588  -2.58537  -2.25674
H     2.13301  -1.23269  -3.02209
H     2.95031  -0.97484  -1.46141
H    -2.48456   4.86651   3.44938
H    -1.67513   5.12882   1.89534
H    -3.25129   4.35810   1.93784
H     3.25489  -5.51003   1.29239
H     2.66034  -4.57302   3.50359
H     1.30230  -2.50421   3.63344
H    -1.42198   2.92671   0.42857
H    -1.75002   2.99434   4.69534
H    -0.68396   0.76462   4.83183
H     2.45617  -4.41364  -0.75954
O    -0.29458   0.89826  -1.35235
