32

Pt    0.00000   0.00000   0.00000
S    -1.04019   1.27246   1.91291
N     0.29560  -1.38742   1.30998
N     0.86607  -2.49142   0.97420
C    -0.64530  -0.04057   3.07771
C     1.81423  -3.64845  -0.90781
C    -0.03735  -1.22734   2.64971
C     1.88417  -2.50888  -3.03523
C     0.91673  -1.37305  -1.13292
C     1.19767  -2.52509  -0.34008
C     2.14810  -3.62937  -2.24001
C     0.23693  -2.21933   3.59795
C    -0.97598   0.14023   4.40874
C     1.26968  -1.39394  -2.46978
C    -0.09031  -2.02809   4.92363
C     0.46327   2.29130   2.11988
C    -0.69600  -0.84918   5.33556
C     2.25963  -2.52424  -4.48290
H     2.01348  -4.50787  -0.28682
H     2.62287  -4.49015  -2.68890
H     0.70651  -3.12736   3.25422
H    -1.45709   1.05829   4.71080
H     1.06749  -0.53163  -3.08938
H     0.12495  -2.80262   5.64378
H     0.52117   2.62974   3.15105
H     1.35309   1.72086   1.84978
H     0.34827   3.13807   1.44893
H    -0.95438  -0.70264   6.37276
H     2.06411  -1.56194  -4.94760
H     3.31595  -2.76392  -4.59836
H     1.68845  -3.28819  -5.01018
O    -0.22029   1.21425  -1.09525
