38

Ti    0.00000   0.00000   0.00000
Cl   -1.03394   0.01338  -1.87979
Cl    1.66450   1.30660  -0.50035
N    -1.31505  -0.96697   1.21209
Si   -1.91311  -2.61705   1.26788
C    -0.59969  -3.72136   2.10366
H    -0.81235  -4.76557   1.90008
H    -0.57674  -3.59861   3.18312
H     0.39368  -3.50620   1.71696
C    -3.54651  -2.64344   2.25254
H    -3.96598  -3.64321   2.23699
H    -4.28687  -1.96962   1.83092
H    -3.39828  -2.36752   3.29260
C    -2.17805  -3.02774  -0.57308
H    -2.85097  -2.31635  -1.04946
H    -2.59552  -4.02089  -0.70020
H    -1.23147  -2.99265  -1.11068
N    -0.96094   1.46192   1.03503
Si   -1.06545   3.20429   0.84329
C     0.52376   3.99764   1.54190
H     0.53216   4.02880   2.62808
H     0.61268   5.01903   1.18710
H     1.40718   3.45628   1.21159
C    -1.23926   3.40779  -1.04253
H    -1.35928   4.45023  -1.31790
H    -2.09619   2.85717  -1.42777
H    -0.35265   3.02901  -1.54930
C    -2.60465   3.83201   1.77874
H    -2.72420   4.89671   1.61191
H    -2.52001   3.67675   2.85047
H    -3.51367   3.34220   1.44149
P    -1.50592   0.36749   2.03469
Cl   -3.18775   0.68084   2.97080
C    -0.24246   0.28639   3.44822
Cl    1.25216   0.00205   2.53632
Cl   -0.56073  -1.05074   4.53035
Cl   -0.14511   1.79828   4.32294
O     0.92110  -1.35285  -0.20949
