59

Ir    0.00000   0.00000   0.00000
O    -4.97294   1.52650  -0.95784
O    -4.22385  -1.09260  -3.08370
N    -2.32267  -0.58931  -1.93655
C    -3.65350  -0.29493  -2.15173
C    -1.91922  -1.73585  -2.70928
H    -1.12708  -1.45026  -3.41287
N    -2.78435   1.00313  -0.63789
C    -3.23148  -2.04311  -3.47751
H    -3.09573  -1.95809  -4.55965
H    -3.61223  -3.04251  -3.25101
C     1.08598   1.33069  -1.22553
H     0.45431   1.96086  -1.85109
C     1.68287   0.34607   1.31772
H     1.26831   0.56821   2.29784
C    -1.96932   3.13191   0.30971
H    -1.00191   2.63046   0.44267
C    -1.76269   0.19464  -0.98713
C    -2.38605  -3.30052  -0.74844
H    -2.60246  -2.47892  -0.07008
H    -1.96263  -4.10965  -0.15932
H    -3.31735  -3.65249  -1.18634
C     1.30723   0.01171  -1.67682
H     0.80583  -0.26807  -2.60101
C    -3.00969   2.00386   0.37490
H    -2.92533   1.52171   1.35718
C     2.09621   2.13398  -0.43467
H     1.60304   3.04631  -0.09226
H     2.91614   2.44097  -1.09358
C    -1.38069  -2.86380  -1.80886
H    -0.51771  -2.43146  -1.28459
C     2.60510  -1.54498  -0.14678
H     2.27533  -2.56161  -0.37090
H     3.61921  -1.61814   0.26075
C     2.65399   1.37712   0.78592
H     3.59059   0.88088   0.52682
H     2.87868   2.09668   1.57544
C    -4.47910   2.39011   0.07336
H    -5.11910   2.26631   0.95045
H    -4.56689   3.41981  -0.28483
C    -3.94608   0.72874  -1.32310
C     1.68227  -0.97499   0.90586
H     1.29193  -1.72010   1.59640
C    -1.95666   3.84722  -1.03822
H    -1.88384   3.12986  -1.85249
H    -1.09879   4.51268  -1.09344
H    -2.85317   4.44641  -1.18128
C    -0.90592  -4.03760  -2.65942
H    -1.73775  -4.50386  -3.18289
H    -0.43974  -4.78850  -2.02733
H    -0.17610  -3.71006  -3.39671
C    -2.17573   4.11122   1.46012
H    -3.14116   4.60667   1.38186
H    -1.39916   4.87172   1.44771
H    -2.13147   3.59075   2.41316
C     2.61544  -0.72249  -1.44954
H     3.43244   0.00055  -1.43515
H     2.79917  -1.39637  -2.28876
O    -0.97666  -0.47003   1.24407
