41

Re    0.00000   0.00000   0.00000
S     1.75579  -0.07384   1.61045
O    -1.28856   0.20224   1.03762
N     1.58439   0.20465  -1.52400
N    -1.15451   0.07205  -1.86070
N     0.22917   2.10631  -0.17044
N     1.48103   1.05701  -2.55264
N    -0.96748   1.04091  -2.75849
N     0.18411   2.74416  -1.34282
C     1.61699  -1.63160   2.42618
C     2.77150  -2.34135   2.73282
C     2.67545  -3.54448   3.40700
C     1.43565  -4.03952   3.77651
C     0.28718  -3.32232   3.47938
C     0.37214  -2.11767   2.80910
C     2.55096   0.93733  -3.34565
C     3.38108  -0.02923  -2.81261
C     2.72688  -0.46010  -1.66378
C    -1.92034   0.96190  -3.69545
C    -2.75470  -0.09277  -3.38099
C    -2.22549  -0.62392  -2.20777
C     0.18904   4.06438  -1.12703
C     0.22888   4.28424   0.23587
C     0.25534   3.01230   0.79830
B     0.25299   1.97001  -2.67026
H     3.73204  -1.94527   2.43945
H     3.57229  -4.10021   3.63916
H     1.36394  -4.98463   4.29426
H    -0.68036  -3.70519   3.76823
H    -0.51769  -1.54850   2.56917
H     2.65613   1.53683  -4.22697
H     4.31896  -0.37270  -3.19595
H     3.02157  -1.20622  -0.95077
H    -1.94672   1.64718  -4.51808
H    -3.61697  -0.42879  -3.91778
H    -2.55635  -1.45390  -1.61494
H     0.16741   4.75893  -1.94199
H     0.23778   5.22379   0.74724
H     0.28964   2.70877   1.82613
H     0.31981   2.69410  -3.59851
O     0.14673  -1.61925  -0.28106
