48

Pd    0.00000   0.00000   0.00000
I    -2.24300   1.30470   0.29780
N     1.34597   0.94370   3.76524
N    -0.72118  -0.83719  -1.67960
N     1.43153   2.13844   3.25116
C     0.63919   0.76016   1.69295
N     0.99597   2.02913   2.01217
C     0.85685   0.05652   2.87214
C     0.76833   3.19471   1.23326
O    -0.35809  -1.43553   4.31791
H    -1.23164  -1.11795   4.06001
C     1.30828   3.30953  -0.04988
C     0.50622  -1.35914   3.20419
H     0.04977  -1.82023   2.30976
H     1.40169  -1.92994   3.46964
C     1.02296   4.45043  -0.78473
H     1.43390   4.54649  -1.77964
C    -0.68911   4.05159   3.11343
H    -1.25414   3.12105   3.16512
H     0.06131   4.04646   3.90176
H    -1.37733   4.87291   3.28998
C     2.15441   2.23220  -0.65593
H     2.75533   2.63019  -1.47036
H     2.82102   1.77494   0.07704
H     1.49899   1.44152  -1.08135
C    -0.30684   5.31626   0.99380
H    -0.94915   6.08664   1.39365
C    -0.05079   4.19503   1.76654
C    -0.69759  -0.26578  -2.87761
H    -0.21583   0.70778  -2.94677
C     0.22079   5.46299  -0.27994
C    -1.31620  -2.01735  -1.53215
H    -1.31112  -2.44339  -0.52630
C     1.75966   0.68485   5.11248
H     1.02055   0.04974   5.60080
H     2.72308   0.17143   5.11306
H     1.85445   1.63601   5.63155
C    -1.88144  -2.09509  -3.84484
H    -2.33363  -2.58717  -4.69227
C    -1.26343  -0.86321  -3.99015
H    -1.22108  -0.36798  -4.94712
C    -1.91105  -2.68164  -2.58849
H    -2.38450  -3.63703  -2.42793
C    -0.07114   6.67496  -1.10796
H    -0.67524   7.38901  -0.55514
H     0.85579   7.15942  -1.41180
H    -0.60992   6.39090  -2.01096
O     1.31826  -0.98795  -0.09294
