37

Ti    0.00000   0.00000   0.00000
Cl    1.96177   0.42912   1.05369
Cl   -2.00363   0.54659  -0.92155
Cl    1.62611   2.27253  -3.54954
O     0.60275  -0.83793  -1.36362
O    -0.48080   1.72250   1.07299
O    -0.45642   3.94121   1.23148
N     0.64852   1.63425  -1.20559
C     2.46811  -0.72854  -2.87377
C     2.99454  -0.62031  -4.15468
C     4.29432  -1.02673  -4.40383
C     5.07452  -1.54091  -3.38245
C     4.55050  -1.64983  -2.10566
C     3.25326  -1.24236  -1.84901
C     1.04258  -0.27977  -2.54541
C     1.06243   1.22869  -2.31967
C     0.02870  -0.60112  -3.66163
C     0.52042   2.96773  -0.71536
C    -0.19177   2.82126   0.62441
C    -1.12840   3.84098   2.50838
C    -1.31514   5.24192   3.05353
H     2.40232  -0.22585  -4.96554
H     4.69570  -0.94143  -5.40261
H     6.08743  -1.85649  -3.58263
H     5.15108  -2.04941  -1.30315
H     2.83634  -1.32715  -0.85273
H    -0.97018  -0.38630  -3.27788
H     0.20953  -0.01049  -4.55450
H     0.09930  -1.66015  -3.89850
H     1.50299   3.43463  -0.55652
H    -0.07006   3.60413  -1.38964
H    -0.51280   3.22430   3.17184
H    -2.08632   3.33394   2.35161
H    -0.35209   5.72721   3.18381
H    -1.91700   5.83522   2.37114
H    -1.81770   5.18975   4.01448
O    -0.52458  -1.20468   0.99803
