59

Ti    0.00000   0.00000   0.00000
Cl   -1.64133  -0.47453  -1.54030
N    -0.63460   1.45743   0.69143
P    -0.76976   3.03746   0.73379
S    -0.27237   3.98540  -0.93557
C    -2.55253   3.40794   1.17075
C    -3.37667   2.77943   0.05449
C    -2.80123   4.90136   1.29658
C     0.28761   3.67779   2.14443
C    -0.04466   2.94931   3.43679
C     1.73382   3.42816   1.73845
N     1.24925   1.01471  -1.21299
C     0.73363   1.73017  -2.22341
C     1.53175   2.48737  -3.08001
C     2.88381   2.57718  -2.83653
C     3.41007   1.87974  -1.74785
C     2.56560   1.11468  -0.97363
N     1.04075  -1.79828  -1.09468
C     1.02851  -1.85731  -2.42455
C     1.36605  -2.99870  -3.13462
C     1.73199  -4.13801  -2.43568
C     1.75426  -4.07971  -1.05203
C     1.40399  -2.89166  -0.42833
N    -1.29842  -1.27286   1.24362
C    -1.74804  -0.77837   2.39513
C    -2.57318  -1.49402   3.24866
C    -2.94779  -2.78055   2.89490
C    -2.48418  -3.29376   1.69430
C    -1.66658  -2.50379   0.90111
H    -2.77164   2.89476   2.11512
H    -4.44319   2.84438   0.26654
H    -3.17403   3.29484  -0.88440
H    -3.09895   1.72781  -0.06661
H    -3.86763   5.10233   1.39394
H    -2.29160   5.31409   2.16570
H    -2.43264   5.40904   0.40596
H     0.10866   4.75389   2.24240
H     0.59972   3.29891   4.24298
H    -1.08069   3.10945   3.73130
H     0.12826   1.88088   3.29730
H     2.42124   3.80198   2.49621
H     1.89303   2.35325   1.61634
H     1.95225   3.92258   0.79132
H    -0.33003   1.62066  -2.40840
H     1.06845   3.02645  -3.89008
H     3.52465   3.17344  -3.46781
H     4.46093   1.93213  -1.51041
H     2.94758   0.54878  -0.12734
H     0.72205  -0.95899  -2.94885
H     1.33580  -2.99172  -4.21264
H     1.99468  -5.04687  -2.95668
H     2.03738  -4.93660  -0.46099
H     1.43147  -2.80598   0.65291
H    -1.43036   0.23487   2.62628
H    -2.91349  -1.04924   4.17054
H    -3.58899  -3.36729   3.53575
H    -2.75379  -4.28707   1.37122
H    -1.31107  -2.87175  -0.05622
O     1.05746  -0.37121   1.21099
