41

Tc    0.00000   0.00000   0.00000
Br    0.96471  -0.00047  -2.23106
S     1.99756   1.54885   0.71117
S    -0.47694   2.55804  -0.21279
S    -0.93355  -0.00058   3.13641
N    -0.55001  -0.00027   1.69249
N     1.62360   4.14831   0.21970
C     1.11982   2.92453   0.23707
C     0.81383   5.27357  -0.20421
H     0.11315   4.92811  -0.96958
H     1.47843   6.01763  -0.64723
C     0.04065   5.87501   0.96531
H    -0.54414   6.72261   0.62085
H     0.71963   6.21235   1.74520
H    -0.63620   5.13622   1.38632
C     3.00623   4.38597   0.58403
H     3.07437   5.38835   1.01181
H     3.29186   3.65843   1.34906
C     3.92916   4.25224  -0.62353
H     4.95753   4.42942  -0.32259
H     3.66185   4.96944  -1.39590
H     3.85661   3.25119  -1.04057
S     1.99764  -1.54949   0.71073
S    -0.47650  -2.55878  -0.21393
C     1.11984  -2.92534   0.23722
N     1.62359  -4.14909   0.21992
C     0.81392  -5.27420  -0.20458
C     3.00604  -4.38678   0.58479
H     0.11347  -4.92852  -0.97007
H     1.47867  -6.01814  -0.64758
C     0.04039  -5.87588   0.96459
H     3.07391  -5.38922   1.01247
H     3.29133  -3.65935   1.35007
C     3.92948  -4.25294  -0.62239
H    -0.54416  -6.72348   0.61973
H     0.71910  -6.21330   1.74468
H    -0.63673  -5.13726   1.38547
H     4.95769  -4.43012  -0.32099
H     3.66256  -4.97008  -1.39495
H     3.85713  -3.25186  -1.03939
O    -1.53813  -0.00009  -0.59720
