39

Pt    0.00000   0.00000   0.00000
Cl   -1.16070  -1.58366  -1.10577
N    -1.81039   0.99137   0.16761
C    -2.46440   1.43648  -0.83253
O    -3.77203   1.64701  -0.89912
C    -4.65184   1.20438   0.14460
C    -6.01136   0.98953  -0.50805
C    -4.72066   2.24595   1.25970
C    -1.75001   1.80256  -2.09114
N     1.08910   1.40118   1.05141
C     2.10898   2.02080   0.60287
O     3.02468   2.66327   1.31922
C     3.02579   2.61041   2.75254
C     4.45898   2.89075   3.18627
C     2.05435   3.64140   3.32448
C     2.35842   2.12333  -0.86578
H    -2.35415   0.72217   0.98370
H    -4.28637   0.24449   0.53587
H    -6.37158   1.92371  -0.93036
H    -5.92742   0.25580  -1.30476
H    -6.72367   0.63186   0.22940
H    -3.73711   2.44081   1.68243
H    -5.11412   3.17951   0.86456
H    -5.37705   1.89480   2.05083
H    -1.37481   0.88224  -2.54211
H    -2.43094   2.29452  -2.77892
H    -0.90311   2.44627  -1.86536
H     0.99269   1.35396   2.06271
H     2.74518   1.59742   3.07483
H     5.12790   2.14861   2.75978
H     4.76440   3.87433   2.83995
H     4.53250   2.85375   4.26903
H     2.36543   4.64024   3.02793
H     1.04159   3.47691   2.96225
H     2.05109   3.58213   4.40916
H     3.35326   1.74158  -1.08216
H     1.62115   1.52181  -1.39871
H     2.31261   3.16363  -1.18156
O     1.39993  -0.86920  -0.08472
