58

Ni    0.00000   0.00000   0.00000
N    -0.98542  -0.64000  -1.35688
Cl   -1.59912  -0.95564   1.36577
N     0.98359  -1.78610  -0.28289
N    -0.73536   1.74576  -0.66669
C    -1.82699   0.19639  -1.98452
N     0.32650  -3.90304  -0.58014
C     0.10496  -2.59230  -0.87314
C    -0.45486   2.99319  -0.08842
C    -1.69136  -2.45159  -2.71108
H    -1.59118  -3.47367  -3.03804
C    -0.89924   4.74565   1.47383
H    -1.50546   5.16410   2.26386
C     1.83682  -2.58668   0.41647
C    -0.60221  -4.99528  -0.81180
H    -1.47499  -4.55861  -1.30416
C     1.43830  -3.93231   0.23520
C     2.16451  -4.96223   0.82242
H     1.90374  -6.00031   0.69117
C    -2.62625   2.63211  -1.99060
H    -2.33578   3.59872  -1.58619
H    -3.65005   2.41198  -1.69000
H    -2.59619   2.67843  -3.07873
C    -0.91039  -1.94247  -1.68067
C    -1.25746   3.52092   0.92979
C     3.63187  -3.28174   1.78610
H     4.48635  -3.06600   2.40886
C     0.71278   3.64379  -0.50725
C     0.22152   5.42446   1.03177
H     0.48047   6.37798   1.46724
C    -1.70465   1.56173  -1.50246
C     1.02843   4.86894   0.05449
H     1.92219   5.38287  -0.26722
C    -2.67963  -0.27661  -2.97973
H    -3.37700   0.38726  -3.46416
C    -2.59334  -1.60715  -3.34843
H    -3.21846  -1.99239  -4.13936
C     1.58486   2.98877  -1.53134
H     1.79698   1.96299  -1.21312
H     2.52250   3.52625  -1.64108
H     1.08925   2.94371  -2.50240
C     2.93668  -2.24921   1.20126
H     3.19381  -1.21271   1.34739
C     0.01700  -6.04843  -1.72895
H     0.34067  -5.59614  -2.66453
H    -0.71629  -6.81941  -1.95009
H     0.87839  -6.51542  -1.26091
C     3.25527  -4.61424   1.59102
H     3.83412  -5.39587   2.06028
C    -1.08225  -5.57373   0.51920
H    -1.45678  -4.77235   1.15252
H    -0.28506  -6.08711   1.04669
H    -1.88918  -6.27895   0.33781
C    -2.42650   2.75049   1.45916
H    -2.72001   3.13318   2.43289
H    -2.16710   1.69647   1.56647
H    -3.28661   2.81907   0.79246
O     0.98309   0.62740   1.16722
