36

Pt    0.00000   0.00000   0.00000
N     1.67637  -0.52539  -1.17724
N    -1.75865  -0.11071   1.16999
N    -0.95073  -7.17217  -0.12030
C    -0.25424  -1.92169  -0.03156
C     0.75322  -2.72708  -0.55290
C     0.57517  -4.09645  -0.58657
C    -0.61313  -4.63620  -0.07755
C    -1.62215  -3.82350   0.45526
C    -1.43814  -2.45454   0.46824
C     1.98833  -1.96995  -0.97270
C    -2.43452  -1.41767   0.92324
C    -1.24810  -0.07827   2.54513
C    -2.71379   0.98229   0.98351
C     1.20503  -0.31852  -2.55113
C     2.88032   0.27610  -0.95337
C    -0.79867  -6.03487  -0.10112
H     1.33051  -4.75750  -0.98799
H    -2.52463  -4.27879   0.83856
H     2.72387  -2.04611  -0.16438
H     2.44555  -2.38316  -1.88088
H    -2.98091  -1.72840   1.82295
H    -3.16673  -1.27436   0.12110
H    -0.67816   0.83948   2.70463
H    -0.59826  -0.93778   2.71904
H    -2.07344  -0.10685   3.26663
H    -3.58935   0.85138   1.62932
H    -3.03783   1.01758  -0.05743
H    -2.23819   1.93222   1.22581
H     0.89507   0.72042  -2.68150
H     0.35550  -0.97321  -2.75353
H     2.00143  -0.53883  -3.27207
H     3.70028  -0.06089  -1.59749
H     3.18837   0.19810   0.09018
H     2.67123   1.32319  -1.17051
O     0.21551   1.63564   0.02721
