63

Ti    0.00000   0.00000   0.00000
Cl   -1.24427   0.83330   1.58497
O     0.98018  -1.02216   0.84493
C    -1.91989  -0.92040  -0.87536
H    -2.83962  -1.14370  -0.35062
C    -0.86572  -1.83496  -1.13521
C     0.11436  -1.17593  -1.94701
C    -0.42082   0.10848  -2.31357
C    -1.64844   0.27062  -1.60268
C    -0.69736  -3.21017  -0.74693
C    -1.68794  -3.89447  -0.03210
H    -2.56770  -3.35818   0.29305
C    -1.55779  -5.23401   0.25070
H    -2.32818  -5.75190   0.80206
C    -0.43472  -5.92276  -0.19379
H    -0.33938  -6.98059   0.00124
C     0.56130  -5.26031  -0.87601
H     1.41715  -5.82667  -1.20763
C     0.47755  -3.88958  -1.14973
C     1.57753  -3.14417  -1.74842
C     2.84992  -3.71004  -1.90361
H     3.01211  -4.74724  -1.65681
C     3.92651  -2.96709  -2.33358
H     4.89306  -3.43564  -2.44472
C     3.78099  -1.60450  -2.57259
H     4.63860  -1.00625  -2.84070
C     2.54317  -1.01853  -2.44485
H     2.43930   0.05096  -2.57175
C     1.41658  -1.77898  -2.09518
C    -0.06571   1.06806  -3.32862
C     0.82247   0.75690  -4.36696
H     1.23707  -0.23819  -4.42436
C     1.13520   1.68256  -5.33425
H     1.82189   1.42572  -6.12707
C     0.55221   2.94375  -5.29483
H     0.80357   3.67914  -6.04462
C    -0.37875   3.24226  -4.32609
H    -0.86231   4.20535  -4.35968
C    -0.73028   2.31954  -3.33359
C    -1.80025   2.59147  -2.38425
C    -2.37601   3.86002  -2.24450
H    -1.96216   4.70126  -2.77737
C    -3.45600   4.07331  -1.41798
H    -3.87285   5.06530  -1.32531
C    -4.01269   3.01862  -0.70252
H    -4.86724   3.18745  -0.06476
C    -3.45229   1.76636  -0.79069
H    -3.85932   0.95341  -0.20703
C    -2.33336   1.53815  -1.60237
C     1.97989  -1.21274   1.78904
C     3.33388  -1.00434   1.09279
H     3.48592  -1.77483   0.33926
H     4.14309  -1.04588   1.81635
H     3.33396  -0.02949   0.60184
C     1.85983  -2.63751   2.34792
H     0.87571  -2.76910   2.79544
H     2.62439  -2.81947   3.09730
H     1.96961  -3.35736   1.53852
C     1.78228  -0.16565   2.89813
H     1.82919   0.83541   2.45964
H     2.55170  -0.26381   3.65939
H     0.80152  -0.29980   3.35709
O     0.93134   1.33923  -0.24815
