69

Pd    0.00000   0.00000   0.00000
N     0.56173  -0.80023  -1.69006
Cl   -0.46543   0.49979   2.13269
N    -1.47227  -1.24359  -0.31744
C    -1.44983  -1.90305  -1.45112
C     0.11324  -2.65131  -3.27139
C    -0.19108  -1.76467  -2.16260
C    -2.51750  -2.70347  -2.02378
C    -3.23920  -4.30021  -3.73029
C     1.94611   0.51083  -3.17492
C    -3.68240  -1.93214   2.53178
H    -3.78673  -2.66011   3.32318
C     2.96524  -0.87102  -1.44412
C    -0.92592  -3.48518  -3.76419
C     4.35075   0.45678  -2.91917
C     1.61532  -3.56851  -4.93815
H     2.60450  -3.59832  -5.36904
C     4.20899  -0.42925  -1.85807
H     5.08841  -0.76891  -1.33025
C     1.83215  -0.42123  -2.13844
C    -2.53738  -1.14281   0.58492
C    -3.36644  -0.01195   0.54144
C    -4.36818   0.10665   1.48815
H    -5.01164   0.97425   1.46424
C    -0.66840  -4.32429  -4.87468
C    -4.80057  -3.51730  -2.07527
H    -5.79096  -3.50779  -1.64623
C     1.37050  -2.72441  -3.86344
H     2.18333  -2.12724  -3.48934
C     0.69832   1.05776  -3.79652
H     0.93255   1.86007  -4.49020
H     0.04867   1.44997  -3.00683
H     0.15051   0.27979  -4.33099
C    -3.80905  -2.72971  -1.50609
H    -4.06448  -2.12826  -0.65155
C    -4.52204  -4.30159  -3.16775
H    -5.28584  -4.92560  -3.60783
C     0.60878  -4.35073  -5.44938
H     0.78892  -4.99822  -6.29482
C     3.21056   0.92645  -3.55551
H     3.30521   1.64746  -4.35447
C    -2.94842  -5.11694  -4.85931
H    -3.74343  -5.72625  -5.26353
C     2.79422  -1.78158  -0.26291
H     2.18243  -1.27704   0.51321
H     3.75901  -2.02724   0.17278
H     2.29166  -2.70901  -0.54914
C    -2.22398  -3.48688  -3.17220
C    -1.67306  -3.20863   1.68254
H    -0.66263  -2.78613   1.69841
H    -1.75157  -3.86666   0.81552
H    -1.82279  -3.79671   2.58334
C    -4.54933  -0.84956   2.47977
C     5.71012   0.93491  -3.32836
H     5.70350   1.29822  -4.35306
H     6.44531   0.13796  -3.23903
H     6.02244   1.75358  -2.67998
C    -1.71193  -5.13552  -5.40296
H    -1.48698  -5.76227  -6.25340
C    -2.66649  -2.09093   1.60514
C    -3.11960   1.04447  -0.49617
H    -2.09901   1.46122  -0.36958
H    -3.83314   1.85736  -0.39114
H    -3.20173   0.63332  -1.50549
C    -5.62674  -0.68209   3.50693
H    -6.49791  -0.18991   3.08028
H    -5.25963  -0.06464   4.32688
H    -5.92714  -1.64349   3.91671
O     1.06282   1.26194   0.02028
