48

Ti    0.00000   0.00000   0.00000
Cl    1.98024   0.43727   0.78998
Si   -1.04457  -2.49066  -1.01006
N     0.13701  -1.27959  -1.36638
C    -1.50658  -1.55706   0.57392
C    -0.54777  -1.44371   1.62674
C    -0.69336  -0.16975   2.23765
C    -1.70334   0.53763   1.53270
C    -2.18556  -0.30585   0.49649
C     0.39076  -2.51927   2.08841
H     0.34885  -3.37387   1.41642
H     0.12228  -2.85302   3.09309
H     1.41887  -2.14880   2.11844
C     0.00423   0.29524   3.48076
H     0.96588  -0.20312   3.59551
H    -0.60649   0.06892   4.35809
H     0.17428   1.37166   3.45708
C    -2.24233   1.88979   1.89017
H    -2.70383   2.36199   1.02453
H    -1.45048   2.54293   2.25741
H    -2.99649   1.79822   2.67524
C    -3.30141   0.03755  -0.44440
H    -3.43278  -0.75098  -1.18202
H    -3.09235   0.97281  -0.96869
H    -4.23673   0.16015   0.10607
C    -2.37265  -3.15680  -2.23298
H    -3.39061  -3.13121  -1.85186
H    -2.39170  -2.75669  -3.24266
C    -1.77255  -4.57010  -2.14595
H    -2.51974  -5.33395  -1.93861
H    -1.26936  -4.83836  -3.07370
C    -0.76335  -4.39672  -0.99853
H     0.22699  -4.77744  -1.23511
H    -1.09500  -4.89826  -0.09258
C     1.21250  -1.35729  -2.33958
C     1.66379   0.05767  -2.73916
H     0.81838   0.61534  -3.14687
H     2.44135  -0.00115  -3.49852
H     2.06662   0.59556  -1.87550
C     0.74800  -2.09169  -3.60340
H    -0.11986  -1.58751  -4.02173
H     0.47869  -3.11665  -3.36774
H     1.54223  -2.10137  -4.34576
C     2.39314  -2.11257  -1.70504
H     2.69612  -1.61254  -0.78367
H     3.23901  -2.14206  -2.38750
H     2.09450  -3.13102  -1.46644
O    -0.31141   1.44467  -0.73379
