63

Zn    0.00000   0.00000   0.00000
Cl    1.56127   1.49003   0.48024
O    -0.54694  -0.35101   1.93094
O     0.63863  -1.76189  -0.79802
O     3.00500  -0.02718  -2.58673
O    -2.91033   2.12186   1.54063
N     1.66046  -2.19340  -3.16534
H     1.59432  -1.64343  -2.28902
N    -1.49470   1.40662   3.62148
H    -1.46760   0.97244   2.68078
C    -0.18413  -2.71568  -1.02121
C     0.31211  -0.68287   2.81841
C     0.27198  -0.11203   4.14405
C    -0.09464  -3.50960  -2.22394
C     0.81341  -3.19175  -3.24005
H     0.80008  -3.79245  -4.14305
C     1.33406  -1.63241   2.55935
H     1.39840  -2.02942   1.55731
C    -1.21063  -3.05501  -0.10276
H    -1.30864  -2.44011   0.77950
C    -0.61866   0.91825   4.46607
H    -0.56386   1.34774   5.46054
C    -0.98655  -4.59461  -2.40834
H    -0.89556  -5.17871  -3.31347
C     2.80201  -2.38154  -5.32679
H     2.26155  -3.27976  -5.58011
C     1.19843  -0.55479   5.11981
H     1.14230  -0.11983   6.10793
C     3.72752  -1.87221  -6.21819
H     3.89944  -2.37319  -7.15773
C     3.28894  -0.57180  -3.78494
C     2.56939  -1.74631  -4.11187
C    -2.05562  -4.10243  -0.32655
H    -2.82850  -4.33095   0.39300
C    -2.56407   3.12920   4.99905
H    -1.99560   2.84300   5.86967
C    -1.94152  -4.89350  -1.48377
H    -2.61813  -5.71996  -1.63653
C    -2.38460   2.45527   3.79594
C    -4.04837   3.88021   2.77573
H    -4.63350   4.18603   1.92384
C     4.21432  -0.07505  -4.69610
H     4.77217   0.81869  -4.46871
C     2.14379  -1.49148   4.82780
H     2.84657  -1.81905   5.57814
C     4.42860  -0.72173  -5.90114
H     5.15118  -0.32058  -6.59506
C    -3.14153   2.83235   2.66070
C     3.65347   1.16829  -2.20188
H     3.45464   1.97158  -2.91602
H     4.73215   1.01633  -2.10366
H     3.22408   1.42860  -1.23382
C     2.21411  -2.02083   3.52680
H     2.98116  -2.74542   3.29429
C    -4.20902   4.53975   3.98206
H    -4.91798   5.35045   4.05078
C    -3.60187   2.46148   0.35554
H    -3.21541   1.78385  -0.40643
H    -3.39692   3.49440   0.06248
H    -4.67929   2.31468   0.47344
C    -3.47221   4.16692   5.09277
H    -3.60272   4.68243   6.03112
O    -1.22563   0.24112  -1.07805
