63

C     0.10048  -1.79259   2.57789
C    -0.19522  -3.02515  -0.78890
C     0.94467  -2.89742   2.29146
H     1.66454  -2.78318   1.49354
C    -1.07650  -3.64714   0.13411
H    -1.79413  -3.01820   0.64140
C     0.85545  -4.06484   2.99211
H     1.51146  -4.88760   2.74706
C    -1.02362  -4.98838   0.37904
H    -1.70674  -5.43005   1.09012
C    -0.08435  -4.21885   4.02504
H    -0.14694  -5.15636   4.55531
C    -0.08589  -5.80647  -0.27312
H    -0.05208  -6.86194  -0.05198
C    -0.89871  -3.17606   4.35795
H    -1.61311  -3.27168   5.16379
C     0.76330  -5.26106  -1.19124
H     1.47663  -5.88067  -1.71672
C    -0.82488  -1.93856   3.67824
C     0.72791  -3.88139  -1.49802
C    -1.63156  -0.86582   4.09097
H    -2.33673  -1.02089   4.90090
C     1.57186  -3.36536  -2.49477
H     2.27514  -4.03186  -2.98303
C    -2.22322   1.49638   3.81490
C     2.24196  -1.41955  -3.82638
C    -3.39332   1.56139   4.56130
H    -3.81140   0.66126   4.98400
C     3.40535  -1.89700  -4.41741
H     3.78550  -2.86950  -4.14651
C    -4.03674   2.77119   4.73781
H    -4.94797   2.81591   5.31286
C     4.09016  -1.11754  -5.32958
H     4.99544  -1.49028  -5.78185
C    -3.51805   3.91790   4.16124
H    -4.02616   4.86136   4.28683
C     3.62013   0.14541  -5.64665
H     4.16063   0.76100  -6.34878
C    -2.35253   3.87270   3.41515
H    -1.97372   4.77781   2.96992
C     2.46234   0.63770  -5.06862
H     2.12192   1.62715  -5.32570
C    -1.68481   2.66911   3.23615
C     1.75301  -0.13492  -4.15948
C     0.02674   3.61574   1.87750
H     0.92874   3.24504   1.39327
H     0.29639   4.41450   2.57385
H    -0.66505   3.99697   1.12156
C     0.09415   1.52897  -3.77002
H    -0.15309   1.69217  -4.82256
H     0.80870   2.28455  -3.43262
H    -0.81552   1.59524  -3.17544
I     2.29502   0.88937  -0.53665
N    -1.53679   0.32367   3.55361
H    -0.80896   0.38397   2.81577
N     1.51517  -2.11476  -2.87618
H     0.78828  -1.56610  -2.37760
O     0.15783  -0.71376   1.90226
O    -0.21865  -1.76736  -0.99199
O    -0.52623   2.50824   2.55682
O     0.59700   0.22661  -3.55728
Zn    0.00000   0.00000   0.00000
O    -1.47056   0.73722  -0.12829
