63

C     0.05728   2.13929  -2.55595
C     0.99749   3.20996   0.43614
C    -0.90777   3.09345  -2.12826
H    -1.65008   2.76706  -1.41333
C     1.94551   3.59299  -0.55432
H     2.60920   2.82337  -0.92258
C    -0.91170   4.36968  -2.60565
H    -1.66281   5.06751  -2.26482
C     2.02636   4.87475  -1.00944
H     2.76582   5.13627  -1.75268
C     0.04814   4.79758  -3.54074
H     0.02463   5.81396  -3.90198
C     1.15846   5.87114  -0.52659
H     1.23087   6.87492  -0.91540
C     0.99526   3.92327  -3.98286
H     1.73743   4.23449  -4.70524
C     0.24478   5.56183   0.43596
H    -0.41652   6.32081   0.83077
C     1.03467   2.58501  -3.52511
C     0.14641   4.25409   0.96701
C     2.02257   1.71449  -4.00107
H     2.77186   2.09563  -4.68779
C    -0.76136   3.98718   1.99976
H    -1.42487   4.77709   2.33538
C     2.98606  -0.53203  -4.00718
C    -1.63996   2.33852   3.59285
C     4.25640  -0.26044  -4.49987
H     4.57030   0.76251  -4.63895
C    -2.69789   3.05608   4.13793
H    -2.91226   4.05096   3.78121
C     5.12843  -1.29518  -4.78199
H     6.11529  -1.07780  -5.15903
C    -3.48683   2.49390   5.12317
H    -4.30898   3.05528   5.53787
C     4.73706  -2.60441  -4.56346
H     5.42016  -3.41345  -4.77083
C    -3.22596   1.20906   5.56485
H    -3.84515   0.76328   6.32769
C     3.47426  -2.89451  -4.07384
H     3.19494  -3.92161  -3.90611
C    -2.17751   0.47681   5.03225
H    -2.00303  -0.52629   5.38554
C     2.58106  -1.86945  -3.79567
C    -1.37207   1.02561   4.04547
C     0.85410  -3.33144  -3.05981
H     0.83682  -3.95645  -3.95766
H    -0.16183  -3.20600  -2.68849
H     1.46669  -3.80361  -2.28734
C     0.01841  -0.90315   3.88642
H    -0.78725  -1.61180   3.67259
H     0.25336  -0.92111   4.95449
H     0.90649  -1.18040   3.32005
Hg    0.00000   0.00000   0.00000
I    -2.54574   0.12313   0.59226
N     2.06998   0.44849  -3.66217
H     1.28751   0.15616  -3.04522
N    -0.81683   2.81688   2.58976
H    -0.12602   2.14141   2.21247
O     0.05979   0.94447  -2.11819
O     0.92049   2.00904   0.84605
O     1.31259  -2.03032  -3.35093
O    -0.31789   0.39930   3.45900
O     1.34803  -0.94984   0.05587
