46

Pt    0.00000   0.00000   0.00000
Cl   -2.02235   0.47743   0.90020
N    -0.59498   0.41648  -2.04001
N     2.07472   0.04504  -0.80678
C    -2.05929   0.41761  -2.21737
H    -2.49107   1.12592  -1.50856
H    -2.29155   0.75037  -3.24096
C    -2.67212  -0.95708  -1.97053
H    -3.74506  -0.89637  -2.15340
H    -2.52249  -1.21714  -0.92077
C    -2.02912  -2.02148  -2.84864
H    -2.27977  -1.85455  -3.90007
H    -2.39577  -3.00941  -2.56953
C    -0.52010  -1.94041  -2.65962
H    -0.28707  -2.13562  -1.60503
H    -0.00578  -2.67810  -3.27779
C    -0.04700  -0.53298  -3.02340
H    -0.47154  -0.27695  -4.01081
C     1.47419  -0.43837  -3.18923
H     1.74894  -1.12943  -3.99452
C     2.29284  -0.83029  -1.96022
H     3.34958  -0.81880  -2.25808
H     2.04816  -1.85069  -1.65485
C     2.98770  -0.33041   0.28895
H     2.87225  -1.40173   0.46572
H     2.65162   0.18494   1.19126
C     4.45401   0.02895   0.06831
H     5.01415  -0.28218   0.95029
H     4.87913  -0.49282  -0.79173
C     4.55542   1.53454  -0.12927
H     5.58933   1.83953  -0.30058
H     4.19643   2.04392   0.76707
C     3.69455   1.91763  -1.32560
H     4.12519   1.46431  -2.21914
H     3.70729   3.00007  -1.46660
C     2.22991   1.47695  -1.14292
H     1.83046   2.03586  -0.28286
C     1.42775   1.86623  -2.40032
H     1.66223   2.91448  -2.61560
C    -0.09503   1.78045  -2.25262
H    -0.43491   2.39616  -1.41259
H    -0.53679   2.19478  -3.17362
C     1.82741   0.99014  -3.58447
H     2.88828   1.07989  -3.81559
H     1.27359   1.29012  -4.47670
O     0.41032  -0.40601   1.54573
