49

Re    0.00000   0.00000   0.00000
N    -1.88901  -0.95437  -0.64750
N    -1.39921   0.49133   1.53426
C    -2.54820  -0.20524   1.52382
C    -3.49227  -0.06109   2.54060
H    -4.42402  -0.60032   2.49862
C    -4.96580  -3.90577  -0.80507
C    -3.93095  -2.86654  -0.75426
C    -2.05117  -1.71874  -1.73095
C    -3.05498  -2.67721  -1.81685
H    -3.15017  -3.25858  -2.72070
C    -1.14532  -1.54169  -2.88049
O    -6.58846  -2.42979   0.13176
H    -7.53336  -2.39497   0.32595
C    -3.77272  -2.04046   0.35323
H    -4.41620  -2.17163   1.20506
O    -0.43834   2.68900  -1.45773
C    -2.75478  -1.09608   0.37316
C    -6.27111  -3.66234  -0.35443
C    -0.26386   1.68184  -0.92664
O     1.93619  -1.26286  -2.05648
O     2.47167   0.95760   1.58291
C    -0.10399  -0.12889  -4.52494
H     0.04723   0.85168  -4.94977
C    -1.15861   1.31088   2.55491
H    -0.22263   1.85382   2.52432
C     1.19581  -0.75183  -1.34842
C    -0.94358  -0.28045  -3.43695
H    -1.46374   0.57312  -3.02819
C     0.54411  -1.22850  -5.06159
H     1.20989  -1.10658  -5.90260
C    -2.03337   1.48423   3.61014
H    -1.78074   2.15311   4.41675
C     1.56997   0.64293   0.94991
C    -4.66165  -5.16361  -1.31762
H    -3.65235  -5.35959  -1.64684
C    -0.51048  -2.64675  -3.44016
H    -0.65410  -3.62423  -3.00308
C    -5.61280  -6.16360  -1.38069
H    -5.35123  -7.13440  -1.77163
C    -7.22666  -4.66735  -0.43529
H    -8.23439  -4.46561  -0.09531
C    -6.90091  -5.91213  -0.94067
H    -7.65489  -6.68279  -0.98918
C    -3.23151   0.78512   3.59999
H    -3.94737   0.89925   4.39964
C     0.33843  -2.48617  -4.51895
H     0.84452  -3.34444  -4.93487
O     0.06884  -1.43214   0.81654
