36

Re    0.00000   0.00000   0.00000
O     0.59188  -0.34354   3.01026
O    -1.64132   2.45454   0.90105
O     2.59547   1.47512  -0.79703
N     0.70215  -1.97601  -0.68641
N    -0.75703  -0.15312  -2.06684
C     1.50308  -2.83378  -0.07281
C     1.49885  -4.20256  -0.39178
H     2.14753  -4.86649   0.15823
C     0.67068  -4.67985  -1.37123
H     0.63537  -5.73125  -1.61541
C    -0.13261  -3.77361  -2.08156
C    -0.08037  -2.41776  -1.69731
C    -0.97901  -4.17675  -3.15054
H    -1.02012  -5.22730  -3.39704
C    -1.70398  -3.26681  -3.84172
H    -2.34325  -3.56628  -4.65889
C    -1.63931  -1.88433  -3.51574
C    -0.85107  -1.45294  -2.42884
C    -2.34022  -0.90479  -4.23701
H    -2.97688  -1.19850  -5.05842
C    -2.18449   0.40996  -3.89019
H    -2.68958   1.19110  -4.43679
C    -1.37411   0.76295  -2.79755
C     2.44115  -2.34977   0.98308
H     3.35184  -2.94471   0.97617
H     1.97847  -2.45504   1.96422
H     2.68892  -1.29978   0.83412
C    -1.21278   2.20952  -2.46546
H    -2.01484   2.52607  -1.79895
H    -0.26288   2.39157  -1.96480
H    -1.27079   2.81105  -3.36983
C     0.44511  -0.19107   1.88447
C    -0.97990   1.59249   0.53810
C     1.62666   0.93220  -0.48884
O    -1.36719  -0.87818   0.28650
