57

Au    0.00000   0.00000   0.00000
C    -7.29690  10.95622  -5.12113
H    -8.32746  10.86329  -4.78720
H    -7.25848  10.79789  -6.19871
H    -6.95399  11.97298  -4.92887
C    -6.41432   9.97944  -4.42711
H    -5.37094  10.01283  -4.70918
C    -6.83574   9.09549  -3.52379
H    -7.89099   9.05921  -3.28257
C    -6.01045   8.11854  -2.83919
H    -6.55426   7.31061  -2.36372
C    -4.68392   8.14771  -2.73111
H    -4.09971   8.93856  -3.17540
C    -3.87774   7.07542  -2.06802
H    -3.26025   7.49520  -1.25881
H    -4.53270   6.29852  -1.65176
C    -6.54225   8.76509  -8.49802
H    -5.96928   9.68215  -8.37623
H    -7.57661   8.96384  -8.22638
H    -6.51288   8.48414  -9.54868
C    -5.96321   7.65455  -7.63016
H    -6.01898   7.94666  -6.57869
H    -6.56279   6.74986  -7.75348
C    -4.51093   7.35058  -7.99156
H    -3.91593   8.25933  -7.87573
H    -4.45296   7.04937  -9.04058
C    -3.92597   6.25188  -7.10964
H    -4.01251   6.54829  -6.06289
H    -4.49778   5.33082  -7.24727
C    -2.45240   5.98623  -7.41548
H    -1.89665   6.92198  -7.34132
H    -2.33393   5.59346  -8.42668
C    -1.85211   4.99287  -6.42281
H    -2.38083   4.03107  -6.47528
H    -0.78906   4.82358  -6.64583
C    -2.40016   5.36097  -2.85526
C    -2.29171   4.72477  -1.63485
H    -2.71352   5.14258  -0.73636
C    -1.61414   3.50826  -1.61104
C    -1.07106   2.94757  -2.76939
C    -1.16925   3.58359  -4.00426
H    -0.74442   3.14664  -4.89215
C    -1.82802   4.79621  -4.03782
C    -1.71547   2.83518   0.77778
H    -1.36144   1.99186   1.36902
H    -2.80178   2.90353   0.86052
H    -1.27102   3.75624   1.15936
C    -0.65050   1.56844  -1.06252
C     0.18367   0.86678  -3.28439
H     1.02973   1.37223  -3.75363
H    -0.50103   0.52317  -4.06202
H     0.54472   0.00979  -2.71747
N    -1.33321   2.62967  -0.58960
N    -0.49193   1.75899  -2.38702
O    -3.04257   6.52901  -3.07722
O    -2.00531   5.55939  -5.13802
O     0.53428  -1.29327   0.87436
