63

Zr    0.00000   0.00000   0.00000
C     2.33061  -0.67159  -0.17091
C     1.56911  -1.85698  -0.38170
C     0.89520  -1.73501  -1.61853
C     1.21935  -0.47770  -2.17350
C     2.09640   0.18027  -1.28771
C     3.20314  -0.38447   0.97614
C     4.31033   0.34020   0.83386
C     2.77730  -0.99648   2.29696
C     2.98103  -0.06368   3.49422
C     2.44060  -0.72209   4.76026
C     3.15930  -2.04266   5.02312
C     3.01515  -2.97858   3.82668
C     3.52971  -2.30963   2.55506
H     1.63866  -2.76890   0.19810
H     0.37108  -2.53541  -2.12653
H     0.91875  -0.11263  -3.14799
H     2.55627   1.14814  -1.45227
H     4.95803   0.56956   1.65996
H     4.60532   0.73409  -0.12335
H     1.69629  -1.20994   2.23782
H     4.04243   0.14535   3.63064
H     2.46593   0.87897   3.30712
H     1.36910  -0.90633   4.64737
H     2.57438  -0.05199   5.61138
H     4.21907  -1.84705   5.20085
H     2.75339  -2.51920   5.91800
H     1.96150  -3.24201   3.69986
H     3.56857  -3.90254   4.00808
H     4.59394  -2.09028   2.66092
H     3.41906  -2.98644   1.70498
Cl    0.85186   1.68564   1.37679
C    -2.33017  -0.67255   0.17098
C    -1.56847  -1.85793   0.38116
C    -0.89454  -1.73644   1.61801
C    -1.21869  -0.47940   2.17355
C    -2.09594   0.17883   1.28816
C    -3.20302  -0.38462  -0.97564
H    -1.63777  -2.76961  -0.19903
H    -0.37036  -2.53703   2.12565
H    -0.91815  -0.11481   3.14823
H    -2.55600   1.14654   1.45316
C    -4.30998   0.34022  -0.83241
C    -2.77782  -0.99599  -2.29694
H    -4.95773   0.57079  -1.65812
H    -4.60440   0.73365   0.12517
C    -2.98326  -0.06337  -3.49402
C    -3.52971  -2.30948  -2.55479
H    -1.69660  -1.20873  -2.23867
C    -2.44215  -0.72119  -4.76007
H    -4.04502   0.14406  -3.63017
H    -2.46950   0.88003  -3.30717
C    -3.01526  -2.97839  -3.82646
H    -4.59406  -2.09052  -2.66037
H    -3.41856  -2.98621  -1.70475
C    -3.15954  -2.04251  -5.02295
H    -1.37046  -0.90435  -4.64714
H    -2.57658  -0.05124  -5.61123
H    -1.96161  -3.24189  -3.69971
H    -3.56877  -3.90236  -4.00781
H    -4.21938  -1.84791  -5.20140
H    -2.75263  -2.51879  -5.91748
O    -0.60244   1.18953  -0.97189
