46

Pt    0.00000   0.00000   0.00000
Cl    1.72957   1.17864  -1.01787
O     3.03633  -0.47985   2.75629
N     1.18157  -0.30752   1.57195
N     2.15263   0.29715   3.58971
N    -1.12448   0.37775  -1.52150
C     1.94175  -0.40853   4.83316
C     2.37800  -0.77116   1.63104
C     0.94053   0.47096   2.78022
C     3.04016  -1.56290   0.60991
C     4.43106  -1.65037   0.59174
C     5.05877  -2.37444  -0.40372
C     4.30902  -3.01690  -1.37599
C     2.92437  -2.94407  -1.34965
C     2.28530  -2.22239  -0.36110
C     0.70939   1.90243   2.34497
C    -0.56830   2.26973   1.92943
C    -0.78132   3.53085   1.39891
C     0.27290   4.42169   1.28182
C     1.53852   4.05802   1.70697
C     1.76186   2.79723   2.23275
C    -2.26147   1.06344  -1.37668
C    -3.07676   1.37947  -2.44680
C    -2.70939   0.97115  -3.71989
C    -1.52898   0.25823  -3.86503
C    -0.76503  -0.01649  -2.74659
H     2.91434  -0.59660   5.28319
H     1.40746  -1.35816   4.70294
H     1.36751   0.24835   5.48247
H     0.04781   0.07815   3.29315
H     5.00356  -1.13538   1.34743
H     6.13653  -2.43430  -0.42485
H     4.80407  -3.57668  -2.15556
H     2.34291  -3.45375  -2.10315
H     1.19948  -2.17953  -0.32280
H    -1.39338   1.58115   2.06056
H    -1.77087   3.81936   1.07496
H     0.10702   5.39982   0.85499
H     2.36074   4.75134   1.61259
H     2.74960   2.49987   2.54956
H    -2.52533   1.35562  -0.36812
H    -3.98562   1.93580  -2.28149
H    -3.32548   1.20240  -4.57499
H    -1.19925  -0.08046  -4.83422
H     0.17143  -0.55560  -2.82662
O    -1.21967  -0.84979   0.71608
