42

Cd    0.00000   0.00000   0.00000
O    -2.75773   4.58245  -2.89038
C     3.02105   1.57225   1.92099
H     2.73782   0.53415   1.74815
H     2.91203   1.80705   2.97837
H     4.06839   1.70632   1.65160
N     1.33108   2.00785   0.20647
Cl    1.14169  -1.75380   1.01683
C     2.16618   2.47013   1.10931
N     0.70657   3.07628  -0.34222
C     2.09521   3.88605   1.14482
H     2.65880   4.53853   1.78008
N    -0.47428   1.61737  -1.64258
N    -1.03399   3.89537  -1.64973
C     1.15227   4.24766   0.22161
C     0.64834   5.58334  -0.16044
H     0.75047   5.74172  -1.23189
H     1.20102   6.34828   0.37809
H    -0.41124   5.66434   0.07412
N    -2.40763   2.32917  -2.76221
C    -0.29934   2.87438  -1.24737
N    -1.90595   0.06713  -2.50948
C    -1.59763   1.38436  -2.30862
N    -1.13341  -0.88745  -1.94059
C    -2.05546   3.57178  -2.43829
C    -3.89425   4.27935  -3.68455
H    -4.33487   5.23922  -3.94392
H    -4.60493   3.67377  -3.12028
H    -3.60222   3.73826  -4.58628
C    -2.87786  -1.84472  -2.95683
H    -3.54890  -2.60168  -3.30857
C    -2.99200  -0.49424  -3.13788
C    -4.03398   0.28880  -3.83660
H    -3.59097   0.92633  -4.59857
H    -4.55147   0.93202  -3.12768
H    -4.74775  -0.38848  -4.29748
C    -1.70204  -2.04506  -2.18898
C    -1.12885  -3.32289  -1.70548
H    -0.72363  -3.89335  -2.54090
H    -1.90257  -3.92280  -1.23020
H    -0.33168  -3.12386  -0.98969
O    -1.40246   0.59045   0.63795
