53

Se   -0.43485  -2.84453  -0.08646
Se    1.65739   0.37001  -1.84273
Cu    0.00000   0.00000   0.00000
N    -1.47719   0.59121  -1.18050
C    -2.58658  -0.01400  -0.69801
C     1.25867  -2.76876  -0.99314
C    -1.37737   1.93877  -1.09878
C    -0.30033   2.58633  -1.76691
C    -3.60800   0.71268  -0.01312
C     2.87728   1.39837  -0.76470
C    -2.74284  -1.41490  -0.88976
C     2.37947  -2.42717  -0.24183
H     2.28037  -2.23415   0.81881
C     3.33448   3.03592   0.91564
H     2.97933   3.76601   1.62649
C     4.68877   2.77134   0.80114
H     5.39525   3.30380   1.41978
C    -2.31395   2.72541  -0.36337
C     0.58459   1.81521  -2.67942
H     1.29561   2.46801  -3.19028
H    -0.00965   1.26469  -3.41632
C    -3.42651   2.08202   0.17680
H    -4.16046   2.65060   0.72973
C     2.42133   2.34665   0.13857
H     1.36421   2.54245   0.24969
C    -1.65851  -2.20078  -1.53736
H    -1.04763  -1.58624  -2.20237
H    -2.04863  -3.07788  -2.05532
C    -0.12467   3.93774  -1.59860
H     0.70442   4.42976  -2.08702
C    -4.74857   0.02218   0.46002
H    -5.50524   0.58257   0.98857
C     1.37479  -3.03134  -2.35114
H     0.50899  -3.32435  -2.92827
C    -3.87334  -2.03456  -0.41688
H    -3.98680  -3.10036  -0.55628
C    -2.08641   4.11502  -0.22342
H    -2.78649   4.69400   0.35993
C     4.23393   1.13028  -0.88702
H     4.56467   0.38193  -1.59425
C    -1.00532   4.69988  -0.81277
H    -0.82212   5.75720  -0.69714
C     3.61255  -2.33039  -0.86133
H     4.48098  -2.06560  -0.27615
C     5.13758   1.81820  -0.09857
H     6.19343   1.60848  -0.18676
C    -4.87800  -1.31911   0.25430
H    -5.74728  -1.84754   0.61496
C     3.72924  -2.56999  -2.22248
H     4.69172  -2.48951  -2.70599
C     2.61265  -2.92334  -2.96178
H     2.70363  -3.12268  -4.01970
O     0.45763   0.13115   1.57983
