53

Cu    0.00000   0.00000   0.00000
S     2.03417   0.58321  -1.27481
S    -0.38194  -2.37972  -0.56152
N    -1.26682   0.70742  -1.41141
C    -2.46311   0.24792  -0.98836
C     2.83603   1.97050  -0.46835
C    -1.03123   2.03529  -1.37886
C     0.98141  -3.03341  -2.91063
H     0.03229  -3.12696  -3.41534
C    -2.74153  -1.13851  -1.13164
C     1.04851  -2.69760  -1.56746
C    -3.92347  -1.64157  -0.65520
H    -4.13016  -2.69780  -0.74896
C    -3.13734   2.45560  -0.26778
H    -3.83694   3.12151   0.21620
C     2.28095  -2.62471  -0.92597
H     2.31861  -2.37431   0.12357
C    -3.43661   1.09860  -0.38497
C     0.18338   2.51850  -1.93784
C    -1.94020   2.95642  -0.77825
C     1.12510   1.55145  -2.56167
H     1.87787   2.04896  -3.17151
H     0.60117   0.79361  -3.14300
C     4.09195   2.34304  -0.92185
H     4.56690   1.77308  -1.70623
C     2.20687   2.67423   0.54324
H     1.23868   2.37106   0.90833
C     2.84278   3.77071   1.10053
H     2.35389   4.31671   1.89219
C    -1.71752  -2.00717  -1.78205
H    -1.24453  -1.48018  -2.61010
H    -2.14463  -2.95590  -2.10510
C     0.48855   3.85145  -1.83773
H     1.42086   4.21789  -2.24352
C     2.15233  -3.26147  -3.61384
H     2.09678  -3.51575  -4.66242
C    -4.87352  -0.80763  -0.04027
H    -5.78837  -1.24294   0.33177
C    -4.64160   0.52934   0.08993
H    -5.36221   1.17675   0.56650
C    -0.39183   4.75419  -1.21664
H    -0.11144   5.79427  -1.14947
C     3.44109  -2.86477  -1.63442
H     4.39418  -2.80199  -1.13183
C     3.38092  -3.17531  -2.98365
H     4.28800  -3.35550  -3.54036
C     4.09291   4.15605   0.64813
H     4.58495   5.01221   1.08496
C    -1.57928   4.32283  -0.70465
H    -2.26144   5.00835  -0.22465
C     4.71878   3.44058  -0.36045
H     5.69672   3.73588  -0.71063
O    -0.32347   0.41519   1.56380
