53

B    -1.45835   0.74563   2.92462
Zr    0.00000   0.00000   0.00000
Cl    2.05983  -0.83560  -0.72775
C    -1.93526  -1.03732   1.04431
C     1.07062   1.05847   1.94587
C    -1.13472  -2.08906  -0.85121
H    -1.05795  -2.45051  -1.87048
C     0.65553   2.54174   0.20580
C     0.67581   3.44851  -0.85915
H     1.61263   3.71827  -1.32766
C    -0.51251   3.98499  -1.30130
H    -0.51369   4.68036  -2.12644
C    -2.12091  -1.20377  -0.35759
H    -2.91112  -0.76294  -0.95692
C    -0.33167  -2.49924   0.23445
H     0.44802  -3.25075   0.19689
C     1.69721   1.82116   0.88713
C    -0.78994  -1.82979   1.38886
H    -0.45470  -2.02937   2.40198
C    -1.79124   2.76155   0.35723
H    -2.73513   2.52091   0.83080
C     3.08128   1.76189   0.69556
H     3.54924   2.35261  -0.08012
C    -0.59364   2.20001   0.85140
B    -2.64362  -0.05550   2.04810
C     3.83225   0.93078   1.49613
H     4.90019   0.86911   1.35530
C     1.87296   0.18596   2.71497
H     1.42667  -0.41471   3.49853
C    -1.73206   3.63430  -0.70365
H    -2.64267   4.06856  -1.09008
C     3.22733   0.13856   2.48227
H     3.84706  -0.52182   3.07137
N    -4.01663   0.14903   2.01735
N    -1.28524   0.81626   4.30155
C    -2.18216   0.19387   5.25070
H    -2.95789  -0.35327   4.72320
H    -2.64681   0.94619   5.89613
H    -1.63307  -0.50285   5.89153
C    -4.94956  -0.58672   1.19016
H    -4.45896  -1.45465   0.75960
H    -5.33852   0.04305   0.38383
H    -5.79723  -0.92481   1.79323
C    -4.69148   1.15697   2.80580
H    -3.96653   1.72400   3.38293
H    -5.41263   0.69655   3.48892
H    -5.24059   1.84447   2.15483
C    -0.35026   1.30151   1.95319
C    -0.21887   1.52622   4.97568
H     0.39351   2.05785   4.25341
H     0.41561   0.83720   5.54151
H    -0.64004   2.24961   5.68067
O    -0.33987   0.54948  -1.51824
