41

Zr    0.00000   0.00000   0.00000
Cl    1.44042   1.71856  -0.68568
N    -4.23312  -1.30900   1.12161
B    -3.20673  -0.37812   1.05556
N    -2.97251   1.43141   3.14144
B    -2.45375   0.46344   2.29352
C    -2.42235  -0.12465  -0.28673
C    -1.99919   1.16748  -0.73390
H    -2.33484   2.11350  -0.31750
C    -1.27432   1.01921  -1.93974
H    -0.92547   1.82271  -2.57786
C    -1.17443  -0.35772  -2.21867
H    -0.71646  -0.79655  -3.09776
C    -1.86683  -1.06266  -1.20444
H    -2.01438  -2.13851  -1.18868
C    -0.91232   0.14418   2.26007
C    -0.37714  -1.17396   2.09385
H    -0.94779  -2.09439   2.18192
C     1.03333  -1.09177   2.04215
H     1.72241  -1.92818   2.03798
C     1.39042   0.27004   2.10016
H     2.40109   0.66173   2.12323
C     0.20296   1.03011   2.22840
H     0.16943   2.10801   2.35581
C    -4.88086  -1.69420   2.35649
H    -4.43083  -1.16401   3.19084
H    -4.77241  -2.77031   2.52270
H    -5.95099  -1.46651   2.32059
C    -4.78076  -2.02823  -0.00912
H    -4.40054  -1.60810  -0.93560
H    -5.87188  -1.95093  -0.00904
H    -4.51862  -3.08988   0.03890
C    -4.35056   1.86979   3.09988
H    -4.88174   1.34536   2.31087
H    -4.40140   2.94521   2.90479
H    -4.84734   1.67875   4.05651
C    -2.22292   2.14129   4.15617
H    -1.24742   1.68217   4.28655
H    -2.75843   2.10630   5.10947
H    -2.09218   3.19289   3.88176
O     0.95720  -1.16412  -0.67163
