59

Ag    0.00000   0.00000   0.00000
O    -4.41715  -8.50785   0.30701
O    -9.46483  -1.71869   0.05310
N    -1.75529  -2.60313   0.13312
N    -3.01816  -0.87260   0.01705
C    -1.72205  -1.25469   0.04919
C    -3.05487  -3.06973   0.15680
C    -3.86167  -1.96463   0.07734
C    -0.59619  -3.39222   0.29002
C     0.48216  -3.21587  -0.57032
H     0.40867  -2.51226  -1.39058
C     1.62918  -3.97004  -0.39218
H     2.46613  -3.83073  -1.05872
C     1.70039  -4.89954   0.63164
H     2.59611  -5.48620   0.76687
C     0.62291  -5.07502   1.48398
H     0.67710  -5.79560   2.28583
C    -0.52455  -4.32101   1.32135
H    -1.36021  -4.44328   1.99399
C    -3.42006   0.46572  -0.17734
C    -2.88388   1.47230   0.61861
H    -2.20147   1.21996   1.42120
C    -3.25565   2.78775   0.40010
H    -2.83654   3.56821   1.01607
C    -4.16120   3.09938  -0.59999
H    -4.44800   4.12626  -0.76781
C    -4.69659   2.09357  -1.38752
H    -5.39861   2.33376  -2.17161
C    -4.32617   0.77704  -1.18422
H    -4.72867  -0.00770  -1.80710
C    -3.41697  -4.47998   0.21985
C    -2.75478  -5.42558  -0.56525
H    -1.96465  -5.11469  -1.23242
C    -3.11308  -6.75257  -0.51020
H    -2.60979  -7.48907  -1.11577
C    -4.14471  -7.17784   0.33063
C    -4.80915  -6.23845   1.11368
H    -5.60942  -6.53059   1.77470
C    -4.44461  -4.90639   1.05446
H    -4.96286  -4.18636   1.67010
C    -5.31611  -1.87301   0.08609
C    -5.96653  -0.92160   0.86489
H    -5.39186  -0.24300   1.47821
C    -7.34654  -0.83674   0.88255
H    -7.81342  -0.08711   1.50127
C    -8.10803  -1.71133   0.11407
C    -7.45773  -2.67163  -0.66608
H    -8.05976  -3.34263  -1.25768
C    -6.08473  -2.75115  -0.68011
H    -5.59378  -3.49264  -1.29204
C    -5.45592  -9.00070   1.11898
H    -5.25147  -8.83056   2.18086
H    -5.49525 -10.07180   0.92803
H    -6.41882  -8.55108   0.85646
C   -10.18092  -0.77015   0.80742
H   -10.00095  -0.89094   1.88044
H   -11.23201  -0.95927   0.59610
H    -9.93046   0.25270   0.50890
O     1.32906   0.97740  -0.02819
