44

C    -0.52766   2.32040  -2.30512
C    -0.70163   1.30328  -3.26287
H    -0.39308   0.29784  -3.01253
C    -1.23309   1.58988  -4.49072
H    -1.36204   0.80055  -5.21506
C    -1.61269   2.89921  -4.82037
H    -2.04285   3.10082  -5.78926
C    -1.42716   3.91395  -3.92250
H    -1.69843   4.93003  -4.16762
C    -0.87106   3.65600  -2.65507
C    -0.63485   4.67639  -1.71066
H    -0.90531   5.69400  -1.94776
C    -0.05896   4.36643  -0.51261
H     0.14527   5.12073   0.22825
C     0.22827   3.01741  -0.24139
C     1.30579   3.35530   2.00285
H     1.30550   4.42245   2.04507
C     1.75701   2.41196   2.89575
C     2.42974   2.58418   4.20797
H     1.93602   1.94467   4.94196
H     2.33853   3.62331   4.52912
C     3.90773   2.18721   4.11492
H     3.95915   1.14866   3.78043
H     4.40320   2.81137   3.36516
C     4.61267   2.35177   5.45947
H     4.50429   3.38297   5.80117
H     4.14984   1.69700   6.19976
C     6.10703   2.02495   5.38229
H     6.56912   2.60351   4.56718
H     6.59360   2.30542   6.31968
C     1.60088  -0.58226  -0.92967
C    -1.22677  -1.01640  -1.13244
C     0.05909  -1.46793   1.28603
N    -0.02372   2.02348  -1.07930
N     0.80335   2.63946   0.96232
N     0.95604   1.33317   1.23327
N     1.51914   1.19037   2.36481
O     6.37458   0.65449   5.22597
H     5.93700   0.33799   4.42741
O     2.54573  -0.90332  -1.49578
O    -2.04645  -1.54914  -1.72683
O     0.05937  -2.25939   2.10681
Re    0.00000   0.00000   0.00000
O    -1.36239   0.62611   0.68874
