63

Ni    0.00000   0.00000   0.00000
Br    0.05228   1.52057  -1.67815
P     0.96911  -1.40982   1.36508
C     1.49708  -2.94410   0.51960
C     2.18540  -2.75850  -0.67797
C     2.63859  -3.84032  -1.40691
C     2.39755  -5.12667  -0.95026
C     1.70118  -5.31880   0.23011
C     1.24794  -4.23552   0.96350
C     2.63643  -0.72349   1.67241
C     3.49465  -1.23965   2.63689
C     4.76375  -0.71089   2.78396
C     5.19257   0.32204   1.96611
C     4.34990   0.82726   0.99096
C     3.07871   0.30495   0.84573
C     0.40077  -2.02520   3.00664
C     0.21808  -0.94018   4.05989
H     2.37308  -1.74987  -1.03230
H     3.17918  -3.68309  -2.32929
H     2.74932  -5.97639  -1.51626
H     1.50483  -6.32003   0.58487
H     0.69200  -4.41002   1.87223
H     3.17996  -2.05004   3.27791
H     5.42198  -1.10835   3.54287
H     6.18369   0.73202   2.09042
H     4.67605   1.63101   0.34849
H     2.41724   0.71945   0.08556
H    -0.54077  -2.55945   2.84378
H     1.14818  -2.75179   3.34122
H     0.03066  -1.39817   5.02967
H    -0.62069  -0.29313   3.81955
H     1.10807  -0.31789   4.13602
P    -0.96887  -1.40992  -1.36515
C    -1.49701  -2.94423  -0.51978
C    -2.63618  -0.72374  -1.67286
C    -0.40024  -2.02499  -3.00672
C    -2.18464  -2.75854   0.67816
C    -1.24879  -4.23568  -0.96411
C    -3.49396  -1.23974  -2.63783
C    -3.07886   0.30445  -0.84606
C    -0.21847  -0.93973  -4.05992
H     0.54162  -2.55873  -2.84402
H    -1.14727  -2.75200  -3.34125
C    -2.63795  -3.84029   1.40715
H    -2.37169  -1.74989   1.03278
C    -1.70219  -5.31888  -0.23070
H    -0.69343  -4.41026  -1.87318
C    -4.76305  -0.71104  -2.78528
H    -3.17900  -2.05001  -3.27880
C    -4.35005   0.82666  -0.99163
H    -2.41763   0.71892  -0.08568
H    -0.03317  -1.39748  -5.03022
H     0.62128  -0.29352  -3.82079
H    -1.10803  -0.31663  -4.13425
C    -2.39777  -5.12666   0.95011
H    -3.17795  -3.68298   2.32986
H    -1.50657  -6.32014  -0.58580
C    -5.19230   0.32161  -1.96726
H    -5.42099  -1.10843  -3.54444
H    -4.67647   1.63030  -0.34922
H    -2.74957  -5.97634   1.51617
H    -6.18340   0.73155  -2.09185
O    -0.03819   1.10772   1.22229
