40

Hg    0.00000   0.00000   0.00000
Cl    1.91072  -0.64489  -1.13951
S    -0.94021  -4.22466  -3.74165
O    -3.76127  -3.64706  -2.77080
O    -3.59969  -1.51349  -3.46781
N     0.56818  -1.83060   1.71722
N    -0.93974  -2.08919  -0.59365
N    -1.33583  -2.35875  -1.83887
N     0.06684  -3.93105  -1.20887
C    -2.12415  -3.03756  -4.43481
H    -1.61360  -2.10530  -4.66916
H    -2.51315  -3.50074  -5.34168
C    -3.25006  -2.78887  -3.43762
C    -4.55023  -1.07894  -2.50005
H    -5.28647  -1.86241  -2.31281
H    -5.02391  -0.18874  -2.90636
H    -4.02553  -0.83989  -1.57270
C     1.06990  -1.75603   2.93862
H     1.09658  -0.76772   3.37696
C     1.53995  -2.86157   3.63251
H     1.94843  -2.74803   4.62365
C     1.46730  -4.10368   3.02288
H     1.81325  -4.99091   3.53154
C     0.93644  -4.19457   1.74789
H     0.84687  -5.14849   1.25293
C     0.50439  -3.02795   1.11970
C    -0.09242  -3.02234  -0.20432
C    -0.73460  -3.46170  -2.21112
C     1.01422  -4.97467  -1.31207
C     2.35763  -4.67805  -1.11529
H     2.65254  -3.66295  -0.89348
C     3.29208  -5.69083  -1.22977
H     4.33771  -5.46917  -1.08245
C     2.88906  -6.97965  -1.54275
H     3.62334  -7.76543  -1.63335
C     1.54869  -7.26108  -1.74871
H     1.23652  -8.26303  -1.99936
C     0.60065  -6.25885  -1.63577
H    -0.44670  -6.46471  -1.79397
O    -1.08627   1.09755   0.58128
