34

Pd    0.00000   0.00000   0.00000
Cl    0.35164   2.21484   0.12599
S    -0.36990  -2.28959  -0.28906
S    -1.61103   0.03511   1.72509
S     1.62272   1.06440   4.50016
C     2.21036  -1.27617   1.64817
C     2.63313  -0.94539   2.93100
C     2.74950  -1.94723   3.89285
C     2.44361  -3.25652   3.57790
C     1.98880  -3.57861   2.30875
C     1.87208  -2.59359   1.33327
C     1.33388  -2.93732  -0.01586
C    -1.19614  -2.72471   1.29961
C    -2.24226  -1.68814   1.65767
C    -0.59429  -0.03358   3.25335
C     0.20231   1.25300   3.38135
C     2.88924   0.47629   3.30502
H     2.18703  -0.49802   0.87126
H     3.07022  -1.68471   4.88953
H     2.54406  -4.03009   4.32382
H     1.73357  -4.60144   2.07122
H     1.28997  -4.01506  -0.17257
H     1.90202  -2.45611  -0.81650
H    -1.66886  -3.69957   1.16631
H    -0.42739  -2.80221   2.06988
H    -2.69131  -1.90684   2.62770
H    -3.02745  -1.65855   0.89990
H    -1.27904  -0.16748   4.09204
H     0.07385  -0.89279   3.18649
H    -0.41119   2.05409   3.79039
H     0.58848   1.57064   2.40479
H     2.86180   1.14187   2.44192
H     3.83478   0.58814   3.83399
O     1.02229  -0.04597  -1.29434
