54

Hg    0.00000   0.00000   0.00000
Cl   -1.82971  -1.08347   0.83286
S     0.87027  -1.60496  -2.21211
S    -0.76342   2.36597  -1.40726
P     1.30700  -0.04312  -3.31109
P    -1.48227   1.32954  -2.90902
C    -0.18249   0.73561  -4.08932
C     2.26294  -0.52653  -4.77946
C     2.38856  -1.86977  -5.10678
C     3.11903  -2.23603  -6.22326
C     3.72387  -1.26496  -7.00439
C     3.60384   0.07582  -6.67108
C     2.87518   0.45051  -5.55811
C     2.29636   1.24446  -2.50248
C     2.18087   2.60548  -2.76647
C     3.00925   3.49205  -2.10483
C     3.95199   3.02981  -1.19980
C     4.08161   1.67304  -0.95610
C     3.25538   0.77647  -1.60728
C    -2.50315   2.36961  -3.99163
C    -2.52478   3.74584  -3.81454
C    -3.30700   4.52852  -4.64558
C    -4.06311   3.93688  -5.64422
C    -4.04372   2.56057  -5.81563
C    -3.26541   1.77151  -4.99029
C    -2.56050  -0.05301  -2.45007
C    -2.42889  -1.36774  -2.87810
C    -3.32801  -2.31481  -2.42044
C    -4.35218  -1.95385  -1.56166
C    -4.49403  -0.63671  -1.15393
C    -3.59772   0.31571  -1.59366
H    -0.61191  -0.01212  -4.76723
H     0.12978   1.60284  -4.68309
H     1.92116  -2.61229  -4.47500
H     3.22025  -3.27964  -6.47993
H     4.29781  -1.55227  -7.87250
H     4.08427   0.82952  -7.27691
H     2.79128   1.49308  -5.28272
H     1.43497   2.98011  -3.45347
H     2.90771   4.55124  -2.28904
H     4.58172   3.73339  -0.67663
H     4.80687   1.31133  -0.24466
H     3.33539  -0.28649  -1.41461
H    -1.93632   4.18386  -3.01997
H    -3.32996   5.59923  -4.51004
H    -4.67625   4.54840  -6.28899
H    -4.64056   2.10296  -6.59034
H    -3.25431   0.69573  -5.10522
H    -1.62595  -1.66495  -3.53736
H    -3.21496  -3.34338  -2.72843
H    -5.03616  -2.70513  -1.19738
H    -5.28673  -0.35799  -0.47714
H    -3.67205   1.34648  -1.26645
O     1.29764   0.43583   0.92124
