53

Ru    0.00000   0.00000   0.00000
S    -2.25244   0.29419   0.09256
N     0.07314   1.41642  -1.41947
O    -1.34511   1.98444   4.24723
C    -0.15385   1.23497  -2.71375
H    -0.24041   0.20618  -3.03994
Cl   -0.20432  -1.74514  -1.54744
N     0.69392   1.91226   2.42200
S     2.21898  -0.43169  -0.07454
O    -0.25682   0.54151   5.58079
C    -0.27688   2.28525  -3.60462
H    -0.46795   2.08426  -4.64619
N     0.34936   1.62434   1.18018
O    -2.71719   1.43655  -0.68174
C    -0.16217   3.58507  -3.13185
H    -0.26127   4.42719  -3.79936
O     3.02043   0.47910   0.73395
C     0.07189   3.77975  -1.78407
H     0.15641   4.76944  -1.36563
C     0.17807   2.67184  -0.94801
C     0.42264   2.75620   0.47198
C     0.80716   3.81009   1.31852
H     0.95447   4.83760   1.05985
C     0.96814   3.22549   2.55007
H     1.25570   3.65068   3.48989
C     0.69008   0.94767   3.47883
H     1.65434   0.92014   3.99003
H     0.49400  -0.05132   3.04225
C    -0.42733   1.23631   4.46786
C    -1.28333   0.61758   6.57705
H    -2.24557   0.77396   6.07912
H    -1.07743   1.48269   7.21682
C    -3.23098  -1.15014  -0.40708
H    -4.28377  -0.91560  -0.30408
H    -2.93270  -1.97540   0.23111
H    -2.98238  -1.37264  -1.43999
C    -2.92816   0.47998   1.76838
H    -4.00328   0.59347   1.69384
H    -2.48834   1.36390   2.22037
H    -2.65348  -0.40580   2.33067
C     2.91991  -0.41562  -1.75328
H     3.95963  -0.71649  -1.70576
H     2.83676   0.59706  -2.13481
H     2.32756  -1.10121  -2.34965
C     2.68618  -2.12620   0.36891
H     3.76140  -2.22827   0.28480
H     2.15583  -2.78652  -0.30936
H     2.35810  -2.30004   1.38932
C    -1.27028  -0.67169   7.37680
H    -2.04590  -0.63811   8.13612
H    -0.30532  -0.80290   7.85807
H    -1.44858  -1.51847   6.72022
O    -0.20072  -1.10363   1.21004
