35

Au    0.00000   0.00000   0.00000
N    -1.40121   0.09768   1.58387
N     0.72030   1.80053   1.44777
N     3.42921   3.07715  -0.41167
N     1.32086  -2.29015   1.58399
N    -1.54691   2.35978  -1.23006
C    -2.26474  -0.88637   1.80699
C    -3.13511  -0.87447   2.87870
C    -3.09159   0.20113   3.75526
C    -2.18918   1.22037   3.51818
C    -1.34828   1.14892   2.40890
C    -0.36947   2.20033   2.10571
C    -0.57802   3.53130   2.44752
C     0.37402   4.46729   2.06642
C     1.50417   4.04624   1.39539
C     1.65168   2.68673   1.10755
C     2.83677   2.19686   0.39395
C     3.30162   0.89353   0.55556
C     4.38716   0.48253  -0.20018
C     4.97122   1.38424  -1.07337
C     4.46052   2.67541  -1.12516
C     0.86661  -1.44951   0.95167
C    -0.95661   1.44995  -0.86199
H    -2.25455  -1.70600   1.10361
H    -3.82323  -1.69103   3.02228
H    -3.74705   0.23985   4.61175
H    -2.11303   2.05742   4.19299
H    -1.48201   3.83705   2.94861
H     0.22298   5.51298   2.28813
H     2.27196   4.72776   1.06871
H     2.83024   0.22646   1.26087
H     4.75645  -0.52805  -0.11464
H     5.80252   1.09755  -1.69698
H     4.89343   3.42495  -1.77446
O     0.91296  -0.26553  -1.34852
