70

Cu    0.00000   0.00000   0.00000
P     1.55009   1.58362  -0.30996
P    -1.93804   0.65510   0.92707
C     0.87764   3.20939  -0.78037
C    -0.07562   3.20044  -1.79600
H    -0.36367   2.25320  -2.23605
C    -0.64160   4.38241  -2.23030
H    -1.37659   4.37214  -3.02133
C    -0.26830   5.58098  -1.64276
H    -0.70988   6.50704  -1.97978
C     0.66594   5.59238  -0.62063
H     0.95252   6.52766  -0.16152
C     1.24043   4.41122  -0.18526
H     1.97020   4.42098   0.61249
C     2.84399   1.31717  -1.55967
C     3.50607   2.35611  -2.20729
H     3.25118   3.38308  -1.98273
C     4.48690   2.06450  -3.13723
H     5.00424   2.86842  -3.64100
C     4.80679   0.74632  -3.42487
H     5.57366   0.52726  -4.15345
C     4.14118  -0.28822  -2.78752
H     4.38399  -1.31442  -3.01932
C     3.15652  -0.00653  -1.85786
H     2.61467  -0.80519  -1.36650
C     2.48339   1.95120   1.20726
C     1.72840   2.05808   2.37373
H     0.65262   1.94102   2.31369
C     2.34397   2.29330   3.58672
H     1.75098   2.37224   4.48644
C     3.72431   2.41329   3.64456
H     4.21098   2.59184   4.59194
C     4.48059   2.29270   2.49032
H     5.55641   2.37756   2.53959
C     3.86751   2.05793   1.27151
H     4.46072   1.95464   0.37393
C    -2.56110   2.31730   0.54048
C    -3.47386   2.49733  -0.49582
H    -3.88405   1.63312  -1.00074
C    -3.85928   3.77129  -0.86836
H    -4.57825   3.90334  -1.66390
C    -3.32603   4.87631  -0.22530
H    -3.63270   5.87056  -0.51411
C    -2.39057   4.70482   0.78218
H    -1.96153   5.56494   1.27494
C    -1.99982   3.43395   1.15642
H    -1.26225   3.30362   1.93688
C    -3.39459  -0.42187   0.72377
C    -4.67199  -0.04000   1.12418
H    -4.83961   0.94555   1.53601
C    -5.72452  -0.92399   0.98357
H    -6.71769  -0.62874   1.29028
C    -5.50901  -2.18776   0.45423
H    -6.33713  -2.87331   0.34835
C    -4.23709  -2.57129   0.06407
H    -4.06796  -3.55584  -0.34555
C    -3.17738  -1.69112   0.19770
H    -2.17839  -1.98218  -0.10257
C    -1.79579   0.63692   2.74461
C    -2.57202   1.41735   3.59427
H    -3.29268   2.11282   3.18764
C    -2.40877   1.30974   4.96345
H    -3.00958   1.91889   5.62335
C    -1.48176   0.42453   5.49058
H    -1.35978   0.34745   6.56104
C    -0.71352  -0.36135   4.64688
H     0.00807  -1.05306   5.05535
C    -0.86936  -0.25605   3.27737
H    -0.27237  -0.86117   2.60553
O     0.33745  -1.59556  -0.25063
