39

Ti    0.00000   0.00000   0.00000
Cl    0.23278  -2.20456  -0.07496
N     1.14241   0.48895   1.17754
N     1.21736   0.14737  -1.83546
N    -0.40127   2.04654  -0.59697
C     1.52083   0.26024   2.43412
C     0.76815  -0.61523   3.25634
C     1.15084  -0.86285   4.55324
C     2.28014  -0.25472   5.08878
C     3.02785   0.60697   4.30227
C     2.66302   0.86581   2.99858
C     2.56671  -0.23883  -1.40714
C     0.76611  -0.79128  -2.86546
C    -1.56417   2.16638  -1.47569
C    -0.63836   2.86526   0.59563
C     1.22387   1.51908  -2.36214
C     0.82147   2.50033  -1.26068
H     3.25014   1.53745   2.38370
H    -0.11587  -1.08185   2.82379
H     0.56524  -1.53618   5.16437
H     0.51880   1.59504  -3.19609
H     1.61000   2.53159  -0.50108
H     0.69165   3.51009  -1.68631
H    -0.26717  -0.57723  -3.15336
H     0.80634  -1.80698  -2.46727
H     2.92925   0.46413  -0.65579
H     3.25646  -0.25973  -2.26381
H     3.90806   1.08289   4.71337
H     2.57203  -0.45234   6.10940
H     1.40380  -0.73221  -3.75948
H     2.21639   1.78723  -2.75199
H    -1.53270   2.50475   1.10556
H     0.20539   2.76034   1.28046
H    -0.77038   3.92176   0.32317
H    -1.48041   1.50395  -2.33925
H    -1.68302   3.20033  -1.83266
H    -2.45712   1.87990  -0.91748
H     2.52591  -1.22845  -0.94701
O    -1.53709  -0.04600   0.59810
