67

Pd    0.00000   0.00000   0.00000
P    -1.75311  -0.12845  -1.41741
C    -1.39861   3.05306  -0.68784
C    -2.37990   2.51657  -1.49893
C    -2.81031   3.21880  -2.63260
C    -2.35728   4.48730  -2.86351
C    -1.21414   6.49453  -2.08024
C    -0.58536   7.14539  -1.07384
C    -0.90379   4.35489  -0.90208
C    -1.46416   5.10294  -1.97238
C     0.00001   5.01898   0.00007
C     0.00008   6.42671   0.00004
C    -3.00217   1.19571  -1.16660
C    -2.71714  -1.66341  -1.09911
C    -1.74370  -2.80667  -0.82955
C    -1.41285  -0.10228  -3.22741
C    -2.59577  -0.34690  -4.15376
H    -1.10049   2.50193   0.20609
H    -3.54145   2.77345  -3.29226
H    -2.73059   5.05834  -3.70155
H    -1.61262   7.02775  -2.93114
H    -0.49083   8.22170  -1.07902
H    -3.27578   1.15331  -0.10760
H    -3.88921   1.00042  -1.77439
H    -3.37808  -1.88260  -1.94111
H    -3.32704  -1.47944  -0.21043
H    -2.27233  -3.74119  -0.65119
H    -1.06597  -2.94607  -1.67371
H    -1.15596  -2.56450   0.06498
H    -0.62632  -0.84011  -3.41143
H    -0.97053   0.88153  -3.42065
H    -2.28677  -0.18554  -5.18469
H    -2.95931  -1.36855  -4.07186
H    -3.41770   0.33191  -3.93987
P     1.75313  -0.12857   1.41752
Cl   -1.51750  -0.03408   1.70541
C     0.90378   4.35485   0.90222
C     0.58558   7.14537   1.07390
C     3.00212   1.19563   1.16653
C     2.71737  -1.66351   1.09965
C     1.41290  -0.10229   3.22752
C     1.39849   3.05298   0.68799
C     1.46427   5.10289   1.97246
C     1.21432   6.49450   2.08031
H     0.49119   8.22170   1.07902
C     2.37989   2.51649   1.49894
H     3.27558   1.15322   0.10750
H     3.88927   1.00037   1.77418
C     1.74361  -2.80662   0.82919
H     3.37773  -1.88275   1.94218
H     3.32802  -1.47931   0.21140
C     2.59590  -0.34662   4.15387
H     0.62650  -0.84025   3.41160
H     0.97043   0.88147   3.42066
H     1.10025   2.50188  -0.20592
C     2.35750   4.48725   2.86348
H     1.61281   7.02770   2.93122
C     2.81049   3.21875   2.63252
H     2.27284  -3.74113   0.65162
H     1.06436  -2.94611   1.67248
H     1.15762  -2.56437  -0.06668
H     2.28692  -0.18500   5.18476
H     2.95950  -1.36827   4.07223
H     3.41779   0.33218   3.93979
H     2.73094   5.05831   3.70146
H     3.54175   2.77341   3.29207
O     1.09681  -0.02435  -1.23245
