67

Pt    0.00000   0.00000   0.00000
P    -1.77357  -0.06300  -1.43363
C    -1.41802   3.15141  -0.65078
C    -2.40388   2.60168  -1.44478
C    -2.86791   3.30608  -2.56383
C    -2.43770   4.58250  -2.79496
C    -1.28980   6.59617  -2.03424
C    -0.62739   7.24562  -1.04880
C    -0.93301   4.45444  -0.87284
C    -1.52761   5.20274  -1.92433
C     0.00068   5.11765  -0.00009
C     0.00060   6.52556  -0.00003
C    -3.00137   1.26840  -1.11563
C    -2.76910  -1.59002  -1.21205
C    -1.88673  -2.81684  -1.41118
C    -1.42431   0.05778  -3.23613
C    -2.60215  -0.20092  -4.16552
H    -1.09087   2.59895   0.22277
H    -3.60665   2.85632  -3.21204
H    -2.83863   5.15466  -3.61945
H    -1.72107   7.13119  -2.86791
H    -0.53753   8.32241  -1.05325
H    -3.24457   1.20670  -0.05110
H    -3.90754   1.08419  -1.69805
H    -3.62269  -1.59047  -1.89455
H    -3.14541  -1.56280  -0.18557
H    -2.42289  -3.72900  -1.15726
H    -1.54330  -2.89091  -2.44128
H    -1.00954  -2.73988  -0.76568
H    -0.60948  -0.63883  -3.44945
H    -1.02602   1.06595  -3.39054
H    -2.30363  -0.00536  -5.19374
H    -2.93381  -1.23480  -4.10462
H    -3.44349   0.44721  -3.93193
P     1.77501  -0.06296   1.43338
Cl   -1.54922  -0.04189   1.72985
C     0.93438   4.45446   0.87266
C     0.62855   7.24561   1.04877
C     3.00282   1.26845   1.11546
C     2.77045  -1.59005   1.21191
C     1.42551   0.05786   3.23584
C     1.41945   3.15146   0.65057
C     1.52892   5.20274   1.92419
C     1.29103   6.59615   2.03417
H     0.53863   8.32239   1.05328
C     2.40529   2.60172   1.44459
H     3.24605   1.20676   0.05094
H     3.90895   1.08423   1.69792
C     1.88799  -2.81680   1.41110
H     3.62402  -1.59049   1.89442
H     3.14675  -1.56290   0.18543
C     2.60330  -0.20091   4.16529
H     0.61064  -0.63871   3.44911
H     1.02727   1.06606   3.39023
H     1.09233   2.59902  -0.22300
C     2.43901   4.58250   2.79482
H     1.72230   7.13117   2.86785
C     2.86927   3.30610   2.56368
H     2.42408  -3.72901   1.15720
H     1.54457  -2.89080   2.44120
H     1.01078  -2.73982   0.76563
H     2.30469  -0.00531   5.19347
H     2.93491  -1.23481   4.10445
H     3.44471   0.44717   3.93178
H     2.83991   5.15465   3.61933
H     3.60798   2.85633   3.21190
O     1.10118  -0.02963  -1.22843
