35

C    -1.98178  -0.70009   1.96937
C    -2.51447  -1.31475   3.12430
C    -1.73219  -2.24571   3.77452
H    -2.10949  -2.73625   4.65955
C    -0.46190  -2.55652   3.29518
H     0.15640  -3.28448   3.79310
C    -0.00840  -1.90372   2.17136
H     0.97921  -2.09509   1.75704
C    -3.88410  -0.94929   3.60800
H    -4.12429  -1.50369   4.51102
H    -4.63563  -1.18311   2.85306
H    -3.93991   0.11584   3.83027
N    -0.75209  -1.00182   1.53152
N    -2.65240   0.26192   1.27818
H    -2.32896   0.39546   0.31126
H    -3.64439   0.34114   1.42910
Cl    1.41346   1.09825   1.44673
Pd    0.00000   0.00000   0.00000
C     1.98110   0.70077  -1.96898
C     2.51413   1.31555  -3.12373
C     1.73241   2.24700  -3.77384
H     2.11013   2.73775  -4.65858
C     0.46211   2.55813  -3.29463
H    -0.15574   3.28658  -3.79244
C     0.00806   1.90494  -2.17124
H    -0.97969   2.09647  -1.75729
C     3.88365   0.94928  -3.60701
H     4.12462   1.50357  -4.50990
H     4.63500   1.18242  -2.85168
H     3.93863  -0.11589  -3.82926
N     0.75134   1.00264  -1.53139
N     2.65149  -0.26126  -1.27780
H     2.32822  -0.39411  -0.31063
H     3.64349  -0.34040  -1.42854
O    -1.00871  -0.79233  -1.03790
