20

Au    0.00000   0.00000   0.00000
Cl    2.27421   0.19738  -0.18761
Cl   -0.32509   0.85247  -2.02620
C    -0.02365  -0.12842   2.99486
N     0.31651  -0.80427   1.87387
N     0.70649  -1.99048   4.34631
C    -0.56428   1.16697   2.95416
H    -0.71306   1.64038   1.99507
C    -0.17700  -0.07369   5.44280
H    -0.01411  -0.57495   6.38338
C     1.03099  -2.59609   3.24149
H     1.45876  -3.58462   3.32277
C    -0.70963   1.18261   5.36582
H    -0.98713   1.71084   6.26498
C     0.83637  -2.00404   1.97832
H     1.11468  -2.51619   1.07058
C    -0.90091   1.80365   4.11844
H    -1.32057   2.79702   4.08183
C     0.18101  -0.76089   4.26490
O    -1.61864  -0.21539   0.23689
