33

Hg    0.00000   0.00000   0.00000
Cl    1.29088   0.78725  -1.81779
S    -2.67396   0.29066  -0.22709
S     0.47640   1.87516   1.89801
N    -4.71828  -0.98597   0.89340
N    -2.77687  -1.89186   1.35901
N     1.44442   3.34752  -0.14759
N     1.56149   4.29980   1.82480
C    -3.39348  -0.91132   0.70991
C    -5.07070  -2.10670   1.74427
H    -5.76982  -2.76966   1.22475
H    -5.55204  -1.74680   2.66029
C    -3.71300  -2.77678   2.02021
H    -3.48397  -2.83752   3.08726
H    -3.65040  -3.78272   1.59490
C    -5.70799  -0.07442   0.40550
H    -6.23267   0.40061   1.23834
H    -6.43412  -0.60201  -0.21718
H    -5.20952   0.68795  -0.18926
C     1.18682   3.20550   1.14824
C     2.12857   4.59278  -0.42764
H     1.59382   5.15044  -1.20018
H     3.14510   4.39699  -0.78242
C     2.11306   5.30490   0.93627
H     3.11264   5.59807   1.27115
H     1.47427   6.19552   0.93312
C     1.36525   4.55805   3.21903
H     0.68581   5.40249   3.36107
H     2.32045   4.78628   3.69702
H     0.93568   3.66907   3.67592
H    -1.77642  -2.10659   1.26584
H     1.39500   2.57973  -0.82855
O     0.14472  -1.55251   0.53970
