39

Pd    0.00000   0.00000   0.00000
C     0.81382  -0.62703  -2.74203
H     1.80354  -0.65715  -2.29675
C     0.64564  -0.70107  -4.11406
H     1.50208  -0.80884  -4.75947
C    -0.63773  -0.58712  -4.62813
H    -0.80495  -0.57547  -5.69495
C    -1.70279  -0.47519  -3.75512
H    -2.70015  -0.32923  -4.13527
C    -1.47961  -0.49257  -2.37565
C    -2.49887  -0.34540  -1.34226
C    -1.99667   0.13657  -0.12871
C    -2.91349   0.53521   0.86474
H    -2.54860   0.93953   1.80336
C    -4.26389   0.46246   0.65139
H    -4.95835   0.83035   1.39484
C    -4.78379  -0.14640  -0.50972
C    -3.89002  -0.61371  -1.51149
C    -4.42773  -1.38614  -2.56194
H    -3.76306  -1.87555  -3.25656
C    -5.77728  -1.58576  -2.67591
H    -6.16661  -2.18781  -3.48433
C    -6.66312  -1.03057  -1.74329
H    -7.72631  -1.18060  -1.86009
C    -6.17051  -0.34292  -0.67006
H    -6.83663   0.04265   0.08896
C     0.51906   1.84852   2.12387
H     0.40698   2.56339   1.31054
C     0.99816   2.23627   3.36264
H     1.27014   3.26501   3.53835
C     1.13180   1.28161   4.35959
H     1.51159   1.55024   5.33341
C     0.77298  -0.02749   4.07452
H     0.86673  -0.80349   4.81756
C     0.30183  -0.33256   2.81010
H     0.01922  -1.34890   2.53949
N    -0.20943  -0.51297  -1.90076
N     0.18036   0.58807   1.85376
O     1.63142  -0.22766   0.09566
