28

Zn    0.00000   0.00000   0.00000
Cl    1.47966  -0.74850  -1.42465
N    -0.21403  -1.81066   2.52617
N    -0.43642  -1.70216   1.21265
C    -0.59663  -2.92391   0.74156
C    -0.48562  -3.85649   1.77405
C    -0.23849  -3.10633   2.89891
C    -0.01827  -0.62029   3.34917
C    -1.23814   0.29570   3.22477
C     0.17079  -1.02179   4.81078
N     1.16967   0.07731   2.86742
N     1.18892   0.63937   1.65412
C     2.37031   1.20832   1.50717
C     3.14214   1.02096   2.65476
C     2.34190   0.29003   3.49967
H    -0.77860  -3.08359  -0.30279
H    -0.57082  -4.92070   1.70744
H    -0.09006  -3.42753   3.90805
H    -1.41665   0.59607   2.19475
H    -1.08501   1.19088   3.82140
H    -2.12175  -0.22256   3.58747
H     0.32838  -0.12979   5.41143
H    -0.73069  -1.51057   5.17061
H     1.01537  -1.69341   4.94327
H     2.61719   1.71945   0.59779
H     4.13849   1.36477   2.83739
H     2.54843  -0.06903   4.48558
O    -1.36430   0.92313  -0.09490
