34

Cu    0.00000   0.00000   0.00000
P     1.38942  -0.55761  -2.52826
O     2.08042  -0.83578  -3.78744
N    -0.37874  -1.73970  -0.82953
C    -1.17786  -2.70771  -0.40196
H    -1.69540  -2.51091   0.52680
C     2.50293  -0.26084  -1.11689
N     1.96470   0.00121   0.07201
C     0.20102  -3.05410  -2.73419
H     0.77364  -3.12639  -3.64662
C    -0.63168  -4.06858  -2.29257
H    -0.73358  -4.98150  -2.86024
C     4.13576   0.18316   1.00096
H     4.75305   0.36534   1.86612
N    -0.35536   1.24745  -1.47655
C     4.70695  -0.09089  -0.23750
H     5.77998  -0.12623  -0.35267
C     0.29602  -1.90216  -1.96561
C     0.31417   0.91259  -2.57733
C     0.22447   1.63815  -3.75726
H     0.79216   1.31644  -4.61746
C    -1.29277   3.09534  -2.62413
H    -1.94143   3.95652  -2.60463
C    -1.33322  -3.89023  -1.10465
H    -1.99099  -4.65855  -0.73061
C     2.75643   0.21982   1.11282
H     2.25333   0.42686   2.04732
C     3.87473  -0.31789  -1.32083
H     4.25146  -0.53587  -2.30892
C    -1.14331   2.31377  -1.49138
H    -1.65644   2.52852  -0.56414
C    -0.59702   2.75278  -3.77900
H    -0.69499   3.34510  -4.67650
O    -0.76967   0.32103   1.42374
