34

Cu    0.00000   0.00000   0.00000
N     1.96674  -0.46800  -0.23733
N     0.22367  -0.25737   2.00452
N    -0.45091  -1.97774  -0.16274
C     2.36135  -1.61795   0.30580
C     2.71503   0.11089  -1.16737
H     2.33473   1.04118  -1.56593
C     3.54731  -2.23100  -0.07166
H     3.84919  -3.16224   0.38387
C     0.20634  -2.79519   0.65772
C     4.33502  -1.62791  -1.03968
H     5.26396  -2.08361  -1.34773
C     1.44742  -2.25116   1.33466
H     1.97674  -3.07402   1.82317
C    -1.39815  -4.52647   0.29123
H    -1.76271  -5.52711   0.46818
C     3.90921  -0.43216  -1.60253
H     4.49301   0.06837  -2.35784
C     1.05803  -1.22535   2.37910
C    -1.56391  -2.39409  -0.75275
H    -2.04720  -1.67936  -1.40427
C    -0.23855  -4.08503   0.90907
H     0.31243  -4.73206   1.57512
C    -2.07847  -3.66167  -0.55566
H    -2.98410  -3.96644  -1.05445
C    -0.12023   0.68609   2.87164
H    -0.79909   1.44149   2.50093
C     0.35197   0.70769   4.17042
H     0.04853   1.48892   4.84825
C     1.57636  -1.28112   3.66476
H     2.24848  -2.07732   3.94790
C     1.21639  -0.30045   4.57582
H     1.60398  -0.32401   5.58315
O    -0.79496   1.24232  -0.73972
