49

Br    2.09544   0.04693   0.60472
Ni    0.00000   0.00000   0.00000
O    -0.98799   0.89718   1.96181
N    -1.86896  -0.19814  -0.24094
N    -0.02162  -1.74261  -1.19055
C    -2.22426   1.41584   1.50224
C    -2.77169   0.48375   0.45320
C    -4.13019   0.34184   0.20626
C    -4.54649  -0.52927  -0.79190
C    -3.60367  -1.26306  -1.48691
C    -2.25729  -1.08661  -1.17287
C    -1.16736  -1.82335  -1.76721
C     1.11251  -2.36914  -1.70660
C     1.76635  -3.29261  -0.87314
C     2.89078  -3.93681  -1.35755
C     3.37964  -3.64820  -2.61943
C     2.76411  -2.69067  -3.40180
C     1.62246  -2.03089  -2.96973
C     1.18467  -3.59945   0.48564
C     0.20906  -4.77522   0.37457
C     2.25514  -3.87601   1.53810
C     1.04732  -0.90355  -3.79496
C     0.59237  -1.39338  -5.17073
C     2.08107   0.21916  -3.91970
H    -0.44563   1.60877   2.32610
H    -2.08796   2.40387   1.03850
H    -2.93057   1.50808   2.33823
H    -4.84215   0.91159   0.78119
H    -5.59693  -0.64021  -1.01221
H    -3.88773  -1.96710  -2.25265
H    -1.34033  -2.43334  -2.65278
H     3.39621  -4.66654  -0.74627
H     4.25765  -4.15876  -2.98575
H     3.18095  -2.44671  -4.36661
H     0.61726  -2.71841   0.81688
H    -0.58974  -4.55390  -0.33230
H    -0.23781  -4.98866   1.34326
H     0.73178  -5.66563   0.03081
H     2.75649  -4.82377   1.35853
H     1.79579  -3.92147   2.52333
H     2.99259  -3.07693   1.53892
H     0.17536  -0.47618  -3.28787
H     1.43375  -1.77040  -5.74632
H     0.13931  -0.57381  -5.72379
H    -0.14049  -2.19377  -5.07634
H     2.40219   0.54252  -2.93225
H     1.64131   1.07282  -4.42967
H     2.95549  -0.10916  -4.47531
O     0.02550   1.46828  -0.75233
