59

Zr    0.00000   0.00000   0.00000
C     2.47215  -0.10338  -0.10694
C     2.13957   0.86482   0.88599
C     1.52536   1.96071   0.22921
H     1.27916   2.91289   0.68147
C     1.46083   1.67460  -1.15311
H     1.17530   2.37105  -1.93065
C     2.05026   0.40819  -1.36130
H     2.24878  -0.03984  -2.32741
C     3.30974  -1.34484   0.08695
H     3.36348  -1.57587   1.15727
C     2.71804  -2.56252  -0.62698
H     1.73376  -2.80220  -0.22260
H     3.36479  -3.42596  -0.48238
H     2.62263  -2.38369  -1.69658
C     4.73279  -1.07316  -0.41881
H     5.15750  -0.20620   0.08186
H     4.72171  -0.87859  -1.48870
H     5.37302  -1.93152  -0.22925
C     2.51723   0.83376   2.34736
H     2.77143  -0.19420   2.62865
C     3.74747   1.71899   2.58109
H     4.04955   1.68320   3.62521
H     3.52670   2.75127   2.31847
H     4.57957   1.38195   1.96830
C     1.35793   1.28659   3.23987
H     0.48299   0.65423   3.07057
H     1.10221   2.32730   3.04653
H     1.64324   1.20216   4.28670
Cl   -0.29325  -1.61008  -1.68030
C    -2.47217  -0.10346   0.10832
C    -2.13980   0.86485  -0.88457
C    -1.52553   1.96067  -0.22778
C    -1.46067   1.67439   1.15449
C    -2.04980   0.40781   1.36266
C    -3.30998  -1.34479  -0.08550
C    -2.51744   0.83384  -2.34593
H    -1.27946   2.91290  -0.67997
H    -1.17535   2.37091   1.93207
H    -2.24850  -0.04013   2.32880
H    -3.36399  -1.57566  -1.15584
C    -2.71806  -2.56253   0.62813
C    -4.73291  -1.07317   0.42065
H    -2.77156  -0.19413  -2.62724
C    -3.74772   1.71902  -2.57956
C    -1.35826   1.28688  -3.23851
H    -1.73385  -2.80204   0.22337
H    -3.36482  -3.42597   0.48353
H    -2.62248  -2.38388   1.69778
H    -5.15773  -0.20617  -0.07984
H    -4.72161  -0.87872   1.49056
H    -5.37320  -1.93150   0.23114
H    -4.04977   1.68322  -3.62368
H    -3.52697   2.75131  -2.31694
H    -4.57980   1.38193  -1.96677
H    -0.48326   0.65467  -3.06935
H    -1.10257   2.32758  -3.04512
H    -1.64359   1.20241  -4.28531
O     0.20492  -1.13008   1.18466
