70

Pt    0.00000   0.00000   0.00000
P     1.74720   0.58380   1.35831
Cl   -1.48269  -0.52886  -1.63315
P     1.85480   0.17165  -1.33704
N     2.83832   0.69267  -0.00197
C     4.23521   0.43593   0.11688
C     2.53933  -0.55513   2.52331
C     2.53866  -1.41480  -1.89164
C     2.18588   1.28908  -2.72406
C     1.82734   2.23462   2.10314
C     4.66074  -0.88619   0.23132
H     3.91982  -1.67195   0.25864
C     3.73864  -1.51330  -2.58986
H     4.27972  -0.61757  -2.86277
C     6.00154  -1.19814   0.33067
H     6.30782  -2.22958   0.41376
C     5.17302   1.47190   0.16552
C     1.84266  -1.72141   2.82263
H     0.85852  -1.86832   2.39278
C     1.83980  -2.56211  -1.53294
H     0.90008  -2.45886  -0.99524
C     6.51912   1.13442   0.26104
H     7.25628   1.92255   0.28842
C     6.93840  -0.17993   0.33054
H     7.99131  -0.40782   0.40143
C     3.80167  -0.33395   3.06764
H     4.34749   0.56812   2.83004
C     4.23004  -2.76112  -2.92561
H     5.16158  -2.84329  -3.46593
C     2.33538  -3.80724  -1.87561
H     1.79095  -4.69920  -1.60466
C     3.53066  -3.90487  -2.57014
H     3.91927  -4.87595  -2.83905
C     2.40246  -2.66214   3.66831
H     1.86038  -3.56478   3.90657
C     4.76454   2.92340   0.15416
C     3.65989  -2.44272   4.20735
H     4.10025  -3.17703   4.86554
C     2.37379   2.99460  -4.90811
H     2.45406   3.65666  -5.75724
C     2.04713   0.79028  -4.01852
H     1.85251  -0.26243  -4.16784
C     2.36365   2.65504  -2.53398
H     2.41385   3.05226  -1.53227
C     1.33950   3.26663   1.30262
H     0.96873   3.02565   0.31110
C     4.35670  -1.28221   3.90719
H     5.33731  -1.11538   4.32814
C     2.14959   1.64073  -5.10303
H     2.04604   1.24834  -6.10371
C     2.47361   3.50066  -3.62242
H     2.62602   4.55868  -3.46749
C     2.21152   2.50007   3.41154
H     2.53481   1.69630   4.05708
C     5.33583   3.64407  -1.06820
H     4.96262   4.66490  -1.10767
H     5.04446   3.13301  -1.98333
H     6.42152   3.67989  -1.02507
C     1.30188   4.56146   1.77933
H     0.92881   5.35971   1.15485
C     1.72560   4.82934   3.07280
H     1.69297   5.83976   3.45221
C     5.19788   3.61988   1.44627
H     4.84038   4.64711   1.45074
H     6.28057   3.63232   1.54299
H     4.77827   3.11297   2.31274
C     2.16456   3.79968   3.88800
H     2.46686   4.00739   4.90389
H     3.67374   2.96717   0.11150
O    -1.15686  -0.16250   1.16523
