55

Hg    0.00000   0.00000   0.00000
I     0.20712   2.46460   0.87806
N     1.47614   0.64438  -2.06380
C     1.01658   1.43426  -3.02041
H    -0.05661   1.58098  -3.04309
C     1.83134   2.05681  -3.95280
H     1.40273   2.69403  -4.70913
C     3.20012   1.84552  -3.87776
H     3.87063   2.31914  -4.57929
C     3.69050   1.01556  -2.88863
H     4.74772   0.81936  -2.79716
C     2.79692   0.42205  -1.99300
C     3.28211  -0.46895  -0.96298
H     4.35363  -0.65546  -0.90896
N     2.45836  -1.02813  -0.15756
N     2.68506  -2.00432   0.64480
C     2.70492  -2.04386   1.91712
C     2.63910  -3.31468   2.62184
C     2.24951  -4.47461   1.94952
H     2.01870  -4.41779   0.89687
C     2.13842  -5.66635   2.63636
H     1.82534  -6.55781   2.11441
C     2.41820  -5.71794   3.99362
H     2.32627  -6.65096   4.52891
C     2.81120  -4.57148   4.66572
H     3.02906  -4.61083   5.72265
C     2.92016  -3.37265   3.98802
H     3.22651  -2.47758   4.51212
C     2.63399  -0.76282   2.69528
C     3.83681   0.03051   2.89655
C     5.09365  -0.53582   2.67856
H     5.17195  -1.57426   2.38561
C     6.23439   0.22572   2.84584
H     7.20451  -0.21859   2.67808
C     6.13477   1.55470   3.22579
H     7.02863   2.14759   3.35037
C     4.88830   2.12283   3.44310
H     4.80976   3.15937   3.73399
C     3.74338   1.36901   3.28255
H     2.76727   1.80211   3.43571
N     1.49545  -0.32123   3.05729
N     0.31518  -0.78934   2.77625
C    -0.34713  -1.62471   3.47873
H     0.10610  -2.15618   4.31506
C    -1.73348  -1.93741   3.19068
C    -2.56243  -1.07267   2.47109
H    -2.19326  -0.10531   2.15116
C    -3.86350  -1.46315   2.21430
H    -4.52921  -0.82109   1.65602
C    -4.29637  -2.69286   2.68646
H    -5.29996  -3.03999   2.49861
C    -3.40570  -3.46479   3.42075
H    -3.70027  -4.42335   3.82773
N    -2.16500  -3.10253   3.67431
O    -0.70774  -1.41393  -0.47160
