70

Pd    0.00000   0.00000   0.00000
P     1.81182  -0.35993  -1.29607
P     1.71203  -0.39435   1.41554
Cl   -1.51848   0.61416   1.54622
N     2.82239  -0.64449   0.09223
C     4.19951  -0.29265   0.12239
C     2.57583   0.52090   2.71985
C     2.39960   1.22860  -1.94835
C     4.54211   1.04792   0.28739
H     3.74976   1.77563   0.40406
C     2.24763  -1.65927  -2.47854
C     1.56786   2.32519  -1.72395
H     0.58525   2.17667  -1.25355
C     1.51510  -2.10240   2.03328
C     3.65120   1.40820  -2.53152
H     4.30818   0.56192  -2.67825
C     5.19874  -1.26263   0.00636
C     2.58921  -1.40768  -3.80226
H     2.68626  -0.39094  -4.15357
C     2.03119  -2.97072  -2.05802
H     1.69159  -3.15104  -1.04448
C     5.86443   1.44214   0.31763
H     6.11254   2.48451   0.44543
C     1.82379   1.53249   3.31283
H     0.81076   1.70419   2.96721
C     1.97806   3.59029  -2.10512
H     1.33318   4.43999  -1.93880
C     2.36984   2.29474   4.32954
H     1.78566   3.07654   4.79093
C     3.66782   2.05415   4.75005
H     4.09874   2.65039   5.54070
C     4.05289   2.67718  -2.90834
H     5.02291   2.81897  -3.36159
C     6.52408  -0.84183   0.03568
H     7.31036  -1.57620  -0.05330
C     4.86657  -2.72849  -0.11605
C     2.62394  -3.77031  -4.23576
H     2.77910  -4.59072  -4.92035
C     6.86058   0.49047   0.18236
H     7.89917   0.78492   0.19924
C     3.87853   0.27706   3.14603
H     4.47465  -0.49476   2.68159
C     3.21844   3.76411  -2.69921
H     3.53875   4.75148  -2.99704
C     4.41785   1.04937   4.15884
H     5.43029   0.86547   4.48764
C     2.78800  -2.46629  -4.67181
H     3.06101  -2.27047  -5.69822
C     2.23320  -4.02234  -2.92950
H     2.07320  -5.03785  -2.59878
C     5.40840  -3.30340  -1.42567
H     5.09406  -4.33870  -1.53656
H     6.49524  -3.27100  -1.44480
H     5.03058  -2.73890  -2.27566
C     5.40731  -3.50857   1.08438
H     5.10936  -4.55196   1.01246
H     5.00858  -3.10445   2.01210
H     6.49287  -3.46312   1.12532
C     0.48227  -2.83701   1.44654
H    -0.19084  -2.35443   0.71873
C     2.30993  -2.69402   3.00821
H     3.07608  -2.11770   3.50532
C     1.09718  -4.75108   2.75182
H     0.94005  -5.78242   3.03038
C     0.27980  -4.15798   1.80198
H    -0.52027  -4.72256   1.34678
C     2.10152  -4.01639   3.35995
H     2.72272  -4.47327   4.11641
H     3.77802  -2.82966  -0.11882
O    -1.10219  -0.00094  -1.22787
