51

Pd    0.00000   0.00000   0.00000
Cl    1.06448  -1.36941  -1.40167
P    -1.99811  -0.65291  -0.90207
O    -3.24488   2.25780   1.41844
O    -1.39675   2.37882   3.32442
N    -4.35101   2.17301   0.66097
N    -4.14167   1.25842  -0.22933
N    -1.13903   1.13270   1.42645
C    -2.93198   0.69475  -0.12993
C    -2.32749   1.37549   0.95935
C    -0.74331   1.59063   2.68703
C     0.52552   0.93284   3.14146
H     0.56558   0.90980   4.22719
H     1.36529   1.52036   2.76497
H     0.60722  -0.07940   2.71955
C    -5.13197   1.01795  -1.24328
H    -6.11300   1.14632  -0.78403
H    -5.01034  -0.00532  -1.60490
C    -4.94774   2.01619  -2.39130
H    -3.91045   1.97467  -2.73170
H    -5.14642   3.02243  -2.01839
C    -5.86937   1.70890  -3.56966
H    -5.60604   2.38520  -4.38426
H    -5.68535   0.69014  -3.91587
C    -7.34638   1.88264  -3.23697
H    -7.94541   1.77601  -4.13732
H    -7.52995   2.87049  -2.82166
H    -7.68289   1.13673  -2.52167
C    -3.13217  -2.06943  -0.91889
C    -4.24792  -2.18331  -0.09550
H    -4.52960  -1.37155   0.56203
C    -4.99429  -3.34867  -0.10753
H    -5.86515  -3.43190   0.52555
C    -4.62120  -4.40771  -0.91888
H    -5.20641  -5.31466  -0.92145
C    -3.48646  -4.31217  -1.71104
H    -3.18282  -5.14659  -2.32482
C    -2.73687  -3.15199  -1.70586
H    -1.83476  -3.06705  -2.29823
C    -1.96895  -0.06537  -2.63379
C    -1.03664   0.93234  -2.92443
H    -0.34509   1.27867  -2.14444
C    -0.96568   1.46061  -4.20006
H    -0.23774   2.22500  -4.42455
C    -1.81847   0.99782  -5.19096
H    -1.75586   1.40404  -6.18903
C    -2.74223   0.00644  -4.90548
H    -3.39997  -0.35961  -5.67983
C    -2.82329  -0.52552  -3.62988
H    -3.53818  -1.30800  -3.41667
O     1.36215   0.91929   0.14819
