52

Ni    0.00000   0.00000   0.00000
C    -0.39998  -1.87103   0.87443
H    -0.62435  -2.82322   0.41807
C    -1.39603  -0.93550   1.36074
H    -2.46121  -1.09217   1.30810
C    -0.74288   0.06388   2.06359
H    -1.19490   0.86418   2.62687
C     0.66069  -0.19323   1.95343
H     1.42971   0.36446   2.46999
C     0.84864  -1.45530   1.33282
H     1.77874  -1.99365   1.25786
C     1.24998  -0.17206  -3.09908
H     1.72846   0.76821  -2.80265
H     1.44450  -0.36235  -4.15945
C     1.80904  -1.29634  -2.26528
C     1.20716  -2.55393  -2.25470
H     0.29311  -2.73642  -2.80856
C     2.81039  -3.43362  -0.91669
H     3.16932  -4.31409  -0.39933
C     3.49393  -2.22875  -0.84831
H     4.40022  -2.14189  -0.26874
C     2.98145  -1.13858  -1.53302
H     3.47455  -0.17836  -1.50043
C    -0.80507  -0.01503  -1.72550
C    -1.07470   0.09857  -3.94056
H    -0.77831   0.10901  -4.96919
C    -2.29839   0.21286  -3.37531
H    -3.26634   0.34860  -3.81200
C    -3.19089   0.18686  -1.09130
C    -3.39631   1.33429  -0.32509
C    -4.46623   1.34860   0.55727
H    -4.63438   2.22776   1.16210
C    -5.31782   0.26052   0.68688
C    -5.08058  -0.87038  -0.08271
H    -5.72678  -1.73008   0.02283
C    -4.02061  -0.92845  -0.97470
C    -2.46208   2.49539  -0.43402
H    -2.80111   3.32652   0.17713
H    -2.36399   2.82883  -1.46615
H    -1.46323   2.19599  -0.09134
C    -6.47949   0.30976   1.63108
H    -7.35413   0.71440   1.12070
H    -6.26069   0.95046   2.48181
H    -6.73052  -0.68486   1.99173
C    -3.74076  -2.17177  -1.76403
H    -4.36085  -2.99232  -1.41329
H    -2.69393  -2.45604  -1.66077
H    -3.94366  -2.01782  -2.82371
N     1.68956  -3.59270  -1.60019
N    -0.17714  -0.04127  -2.92162
N    -2.11542   0.14201  -2.02158
O     0.93976   1.30401  -0.37272
