29

Os    0.00000   0.00000   0.00000
O    -0.32125  -0.51890  -1.90995
O    -0.13607  -2.15933  -3.38740
O    -1.26939  -1.55833   0.71866
O    -1.74186  -2.85046   2.48107
N     1.31323   1.01855  -0.00261
N     1.17494  -1.80638  -0.13213
N    -0.07340   0.22850   2.16411
C     0.08629  -1.67022  -2.30672
C     0.92229  -2.43674  -1.27744
C     1.38566  -3.72005  -1.52936
H     1.14278  -4.17361  -2.47801
C     2.12263  -4.36211  -0.54969
H     2.48287  -5.36810  -0.70192
C     2.38849  -3.68906   0.63579
H     2.96313  -4.14965   1.42317
C     1.89653  -2.40668   0.80599
H     2.08560  -1.84196   1.70960
C    -1.33397  -1.84338   1.95036
C    -0.76650  -0.69925   2.82253
C    -0.99193  -0.63456   4.18836
H    -1.55641  -1.42848   4.65236
C    -0.49794   0.45360   4.88615
H    -0.67057   0.55093   5.94703
C     0.21628   1.42209   4.19135
H     0.61302   2.28871   4.69459
C     0.41340   1.27813   2.83047
H     0.96197   2.00505   2.24361
O    -1.19438   1.13733  -0.04943
