32

Au    0.00000   0.00000   0.00000
Cl   -0.84105   0.65497   1.97098
N     1.25883  -2.03604  -1.52038
N     0.86092  -0.84642  -1.67058
C     0.70028  -1.69993   0.77700
C     1.20651  -2.52089  -0.26338
C     1.67965  -3.80888   0.02416
C     1.65506  -4.26521   1.32139
C     1.16410  -3.46536   2.35470
C     0.68276  -2.18448   2.05910
C     1.12000  -3.96750   3.75783
C     0.88093  -0.29543  -2.93750
C     0.65732  -1.10402  -4.05929
C     0.63371  -0.54283  -5.31423
C     0.84775   0.82484  -5.49352
C     1.10764   1.61132  -4.37540
C     1.12328   1.06978  -3.10725
C     0.82063   1.41881  -6.86372
H     2.05303  -4.41649  -0.78490
H     2.01912  -5.25668   1.54768
H     0.29204  -1.56473   2.85256
H     1.85098  -4.75626   3.91765
H     1.29733  -3.15959   4.46337
H     0.12962  -4.37475   3.96613
H     0.47026  -2.15677  -3.91041
H     0.43416  -1.16621  -6.17355
H     1.29418   2.66742  -4.49835
H     1.34667   1.68590  -2.25270
H     0.01326   0.99038  -7.45365
H     0.69551   2.49719  -6.81921
H     1.75780   1.20395  -7.37859
O    -0.70520   1.26409  -0.79201
