44

Pt    0.00000   0.00000   0.00000
Cl   -1.80626   0.80723  -1.06564
N    -0.92685   0.24807   1.77710
N     1.92819  -0.06515   2.16575
N     1.59038  -0.71713   1.05054
C    -2.21213  -0.06141   1.96148
H    -2.72246  -0.49328   1.11149
C    -2.86624   0.18020   3.15496
H    -3.90685  -0.08064   3.25755
C    -2.16843   0.76453   4.20118
H    -2.64969   0.97332   5.14356
C    -0.83060   1.08049   4.00769
H    -0.25503   1.54664   4.79270
C    -0.24088   0.81213   2.78528
C     1.20982   1.13713   2.50526
H     1.25380   1.81614   1.63685
H     1.68739   1.61263   3.36261
C     2.98342  -0.66137   2.77161
C     3.57444  -0.20877   4.02596
C     2.78033   0.06641   5.13783
H     1.71112  -0.08247   5.08390
C     3.36088   0.48494   6.32104
H     2.73881   0.69308   7.17900
C     4.73541   0.62975   6.40972
H     5.18515   0.96012   7.33364
C     5.53187   0.33961   5.31393
H     6.60424   0.44231   5.38316
C     4.95770  -0.08050   4.12894
H     5.57336  -0.30072   3.27009
C     3.32452  -1.74471   1.98265
H     4.10034  -2.45621   2.17555
C     2.40881  -1.75799   0.91763
C     2.27064  -2.72980  -0.15750
C     3.39617  -3.34292  -0.70159
H     4.37677  -3.08257  -0.33165
C     3.26110  -4.25119  -1.73443
H     4.13955  -4.71199  -2.16177
C     2.00524  -4.56089  -2.22922
H     1.90352  -5.26354  -3.04283
C     0.87995  -3.96576  -1.68240
H    -0.09979  -4.20471  -2.06709
C     1.00777  -3.05805  -0.64938
H     0.12140  -2.60206  -0.21470
O     0.83948  -0.07666  -1.41841
