48

Pt    0.00000   0.00000   0.00000
Cl    0.01942   2.25267  -0.00817
N    -0.22552  -1.97310   0.15129
N     0.67641  -0.86512   2.69116
N     1.23078  -0.18988   1.66972
C    -0.14795  -2.81226  -0.88182
H     0.13272  -2.37341  -1.82934
C    -0.42953  -4.15974  -0.75720
H    -0.36136  -4.80451  -1.61805
C    -0.80652  -4.65650   0.48149
H    -1.04167  -5.70077   0.61377
C    -0.87972  -3.77840   1.55448
H    -1.17864  -4.13085   2.52943
C    -0.58568  -2.44130   1.35691
C    -0.64154  -1.41696   2.47143
H    -1.30760  -0.59362   2.16189
H    -1.02312  -1.86139   3.38657
C     0.93164  -3.16722   4.86211
H    -0.07898  -3.30373   4.49037
H     0.99763  -3.67005   5.82416
H     1.62172  -3.65313   4.17540
C     2.57532  -1.61575   5.88079
H     3.38600  -2.16152   5.40495
H     2.39019  -2.06055   6.85556
H     2.88371  -0.58515   6.03316
C     0.19324  -0.92737   5.78072
H     0.48016   0.11323   5.91323
H     0.04674  -1.37054   6.76307
H    -0.75716  -0.94902   5.25513
C     1.29904  -1.68501   5.03170
C     1.56503  -1.02870   3.70128
C     2.73135  -0.42383   3.27513
H     3.64859  -0.34990   3.81718
C     2.49002   0.07964   1.98986
C     3.46737   0.79115   1.09509
C     4.90096   0.44182   1.51453
H     5.12941   0.83737   2.50098
H     5.60098   0.88068   0.80806
H     5.05296  -0.63584   1.52377
C     3.25118   2.30289   1.23632
H     2.24736   2.56956   0.91590
H     3.96955   2.83781   0.62073
H     3.38281   2.61076   2.27182
C     3.26099   0.36284  -0.36162
H     3.43436  -0.70670  -0.47307
H     3.95671   0.89546  -1.00467
H     2.24552   0.60012  -0.69825
O    -1.00967   0.00254  -1.30501
