64

Rh    0.00000   0.00000   0.00000
P     1.29776  -1.22864  -1.47618
N     3.55158  -0.90509   0.26069
H     2.93868  -0.29769   0.79467
C     4.83288  -1.04212   0.75776
C     6.58881  -0.48215   2.30271
H     6.91876   0.09180   3.15662
C    -2.58195   1.51633  -0.71165
H    -3.37437   1.28309  -1.42594
H    -2.60309   2.59527  -0.55146
C     0.42825  -2.86507  -1.82176
H     0.64819  -3.14467  -2.86088
C    -0.58442   1.31172   1.64245
H     0.08785   1.06617   2.46404
N     3.95309  -2.53544  -1.44299
H     3.70330  -3.10389  -2.23940
C     5.27983  -0.31926   1.84345
H     4.60974   0.36697   2.34024
B     3.05301  -1.64817  -0.81771
C     5.70247  -1.95448   0.10747
C     5.25663  -2.71533  -1.00238
C     7.02917  -2.11367   0.57800
C    -1.24658   1.12960  -1.31156
H    -1.32660   0.60524  -2.26120
C     0.67070  -0.40198  -4.15696
H     0.23624   0.54762  -3.85566
H    -0.10815  -1.16101  -4.14896
H     1.02889  -0.29706  -5.18095
C     0.89368  -3.98774  -0.89901
H     0.72983  -3.71276   0.13949
H     1.95104  -4.20417  -1.02979
H     0.32951  -4.89608  -1.10836
C     7.87640  -3.02895  -0.08181
H     8.88853  -3.14976   0.27454
C     2.88353   0.31494  -3.21973
H     3.20330   0.54549  -4.23543
H     3.75611   0.00878  -2.64609
H     2.49054   1.22677  -2.77547
C    -1.07918  -2.65811  -1.66681
H    -1.61308  -3.59774  -1.80360
H    -1.45623  -1.94012  -2.39304
H    -1.29420  -2.28038  -0.66185
C     6.11380  -3.60155  -1.61800
H     5.77226  -4.18313  -2.46308
C     1.82450  -0.78409  -3.23716
H     2.28936  -1.69655  -3.63590
C     7.44844  -1.35314   1.68871
H     8.45908  -1.47411   2.04929
C    -1.61332   0.42973   1.37421
H    -1.71407  -0.44281   2.01953
C    -0.06381   1.82606  -1.06362
H     0.68469   1.84017  -1.85423
C     7.42313  -3.75179  -1.15082
H     8.07732  -4.45277  -1.64887
C     0.06677   3.00233  -0.12281
H    -0.34948   3.89746  -0.59936
H     1.13319   3.18867   0.03332
C    -2.86640   0.76832   0.60360
H    -3.53092   1.36213   1.24092
H    -3.38705  -0.16525   0.37564
C    -0.60346   2.76930   1.24396
H    -0.07339   3.35235   1.99991
H    -1.63538   3.12236   1.22968
O     0.54986  -1.13389   1.06511
