60

Ni    0.00000   0.00000   0.00000
Cl   -1.59104  -1.16432  -0.62665
P     1.41025  -1.43105  -0.74106
N    -0.12852   1.20105  -1.98910
C    -0.09146   0.50013  -3.12704
C    -1.07675   0.63762  -4.09729
H    -1.03073   0.04713  -4.99975
C    -2.11431   1.53110  -3.89418
H    -2.89564   1.64210  -4.63141
C    -2.12328   2.28678  -2.73326
H    -2.90061   3.00892  -2.54015
C    -1.10850   2.08621  -1.81440
H    -1.06385   2.66278  -0.89709
C     1.06828  -0.43470  -3.33837
H     1.99795   0.07725  -3.08216
H     1.10657  -0.70232  -4.39648
C     0.95388  -1.73327  -2.52111
H     1.65146  -2.46042  -2.94171
H    -0.06572  -2.10252  -2.59424
C     3.22656  -1.21608  -1.02673
C     3.81996   0.05235  -1.08326
C     5.18531   0.16857  -1.32211
H     5.61960   1.15758  -1.35493
C     5.99270  -0.93568  -1.51384
C     5.38914  -2.18355  -1.48348
H     5.99715  -3.06216  -1.64852
C     4.03167  -2.34875  -1.24977
C     3.06965   1.32746  -0.88263
H     3.47681   2.10931  -1.52098
H     3.17147   1.65375   0.15236
H     2.00548   1.21991  -1.08568
C     7.46523  -0.80577  -1.74932
H     8.01626  -1.20262  -0.89709
H     7.74706   0.23465  -1.88741
H     7.76335  -1.37194  -2.63011
C     3.53954  -3.76660  -1.24374
H     4.18340  -4.37948  -1.87226
H     2.52130  -3.85868  -1.60221
H     3.57612  -4.17422  -0.23375
C     1.28794  -2.88721   0.36774
C     1.99607  -2.77349   1.58043
C     1.92795  -3.79857   2.51329
H     2.48026  -3.69802   3.43703
C     1.16883  -4.93553   2.29849
C     0.46477  -5.02576   1.10809
H    -0.14150  -5.90207   0.92677
C     0.49997  -4.03003   0.14329
C     2.84609  -1.58976   1.92002
H     3.00628  -1.54361   2.99501
H     2.37320  -0.65890   1.60755
H     3.82042  -1.65907   1.43712
C     1.08370  -6.02174   3.32486
H     0.17328  -5.90345   3.91286
H     1.93256  -5.98396   4.00320
H     1.05004  -7.00040   2.85069
C    -0.31504  -4.25002  -1.09290
H    -1.02810  -3.43747  -1.21357
H    -0.87088  -5.18080  -1.00868
H     0.31092  -4.31364  -1.98098
O     0.66226   0.99579   1.13679
