58

C     1.76550  -4.88604  -1.91912
H     1.02926  -4.43387  -1.27902
C     1.77890  -6.25916  -2.08836
H     1.04463  -6.85853  -1.57159
C     2.71588  -6.86549  -2.90613
H     2.71751  -7.93747  -3.03154
C     3.65359  -6.08517  -3.56380
H     4.39028  -6.54615  -4.20468
C     3.65062  -4.71470  -3.40294
H     4.38241  -4.10622  -3.91624
C     2.70532  -4.10030  -2.57852
C     2.07462  -1.78087  -1.82724
C     3.95212   0.93310  -3.00449
H     3.44866   1.78137  -2.53681
C     5.07000   1.21626  -3.83779
C     5.60987   2.44594  -4.12701
H     5.21632   3.36390  -3.72943
C     6.71749   2.36816  -4.98761
H     7.27294   3.22393  -5.32671
C     7.01284   1.08854  -5.34704
H     7.80034   0.74633  -5.98885
C    -4.01189  -0.88892   3.70693
H    -3.31168  -1.39293   3.06477
C    -4.84531  -1.62726   4.52828
H    -4.77841  -2.70466   4.51120
C    -5.75495  -1.00359   5.36363
H    -6.39999  -1.58890   6.00094
C    -5.83222   0.38016   5.37543
H    -6.53792   0.87928   6.02260
C    -5.00669   1.12755   4.56068
H    -5.06684   2.20706   4.57037
C    -4.08613   0.50025   3.71810
C    -2.31287   1.13772   2.04759
C    -1.79677   4.53411   1.36050
H    -0.97895   4.49914   0.63809
C    -2.29411   5.81821   1.71814
C    -1.86805   7.03896   1.25347
H    -1.07321   7.14529   0.53759
C    -2.57818   8.11493   1.81129
H    -2.38919   9.14561   1.57065
C    -3.53462   7.71084   2.69212
H    -4.21424   8.31874   3.25586
Cu    0.00000   0.00000   0.00000
N     2.78496  -2.71370  -2.48222
H     3.53768  -2.28762  -3.02520
N     2.51312  -0.51537  -2.03100
H     2.01812   0.26452  -1.58197
N     3.56917  -0.27577  -2.82503
N    -3.29906   1.34133   2.93621
H    -3.49000   2.33804   3.05071
N    -1.81253   2.27787   1.51388
H    -1.04198   2.22012   0.83732
N    -2.30102   3.47559   1.87587
S     0.75624  -2.05084  -0.82715
S     5.94558  -0.05428  -4.64248
S    -1.68875  -0.34544   1.57632
S    -3.59163   6.00516   2.86264
O     0.57309   1.47824  -0.45705
