46

Pd    0.00000   0.00000   0.00000
I    -0.21578  -2.02513  -1.62978
O    -4.81180   0.66655   1.10913
N    -1.22670  -1.82542   2.04599
N    -2.32387  -2.06042   2.73680
N    -3.18536  -1.17617   2.31257
N     1.27934   0.90305  -1.24978
C    -1.34888  -0.80105   1.17472
C    -2.66260  -0.38377   1.35809
C    -3.45155   0.71969   0.74076
H    -3.00759   1.68593   1.04348
H    -3.41744   0.65145  -0.35390
C    -4.97115   0.40118   2.48672
H    -4.33551   1.09083   3.06860
C    -6.42743   0.58271   2.89455
H    -7.04546  -0.08539   2.29302
H    -6.73233   1.60644   2.67858
C    -6.58880   0.27242   4.38102
H    -6.00998   0.99233   4.96359
H    -7.63677   0.38143   4.66199
C    -6.11303  -1.14228   4.70783
H    -6.74310  -1.86679   4.18782
H    -6.20716  -1.32448   5.77884
C    -4.65956  -1.34170   4.28367
H    -4.01050  -0.66415   4.84277
H    -4.33351  -2.36341   4.48088
C    -4.53594  -1.04283   2.79546
H    -5.17078  -1.73180   2.22184
C    -0.06945  -2.66944   2.22992
H    -0.00768  -3.35699   1.37680
H    -0.24444  -3.24513   3.14116
C     1.21362  -1.85063   2.32699
H     2.05264  -2.51474   2.51586
H     1.14902  -1.12337   3.13638
H     1.40584  -1.31652   1.37278
C     2.60191   0.79531  -1.24617
H     3.03670   0.14201  -0.49264
C     3.39712   1.47754  -2.15071
H     4.46902   1.36563  -2.11636
C     2.78990   2.29732  -3.08854
H     3.38151   2.84264  -3.80784
C     1.40666   2.40485  -3.08573
H     0.89286   3.03143  -3.79732
C     0.68871   1.68911  -2.14628
H    -0.40434   1.74156  -2.10251
O     0.12006   1.26807   1.04885
