57

Zn    0.00000   0.00000   0.00000
Cl    0.95167  -0.00001  -1.98000
C     1.68022  -0.74505   2.17441
C     2.90518  -2.39772   3.79307
H     2.57209  -3.32538   3.35394
C     0.97325  -2.79429   1.27493
C     1.85528  -3.49488   0.44721
C     2.99077  -0.00000   3.91311
C     2.51784  -1.17844   3.29019
C    -0.00166  -3.45075   2.03317
C     3.75874  -2.41550   4.91150
H     4.06045  -3.37483   5.30488
C     1.74288  -4.87603   0.38810
H     2.41601  -5.42988  -0.24917
C     4.21814  -1.26980   5.51623
H     4.87333  -1.33301   6.37245
C     3.84052  -0.00000   5.02430
C     0.78099  -5.54289   1.12487
H     0.70229  -6.61756   1.06310
C    -0.08200  -4.83222   1.93957
H    -0.83481  -5.35278   2.51254
N     1.02838  -1.39201   1.29640
C     2.89581  -2.75623  -0.33464
H     3.58496  -2.23692   0.33327
H     2.42995  -2.00707  -0.97547
H     3.46545  -3.44183  -0.95585
C    -0.93102  -2.66974   2.90879
H    -1.64283  -3.33220   3.39357
H    -1.48145  -1.93599   2.31908
H    -0.37876  -2.12978   3.67945
C     1.68011   0.74505   2.17449
C     2.90528   2.39771   3.79300
H     2.57206   3.32537   3.35396
C     0.97323   2.79429   1.27495
C     1.85526   3.49486   0.44719
C     2.51786   1.17843   3.29017
C    -0.00166   3.45076   2.03320
C     3.75872   2.41549   4.91152
H     4.06041   3.37482   5.30491
C     1.74288   4.87602   0.38809
H     2.41602   5.42986  -0.24917
C     4.21810   1.26979   5.51626
H     4.87335   1.33300   6.37243
C     0.78100   5.54289   1.12487
H     0.70231   6.61756   1.06309
C    -0.08199   4.83222   1.93958
H    -0.83480   5.35279   2.51253
N     1.02829   1.39201   1.29647
C     2.89581   2.75622  -0.33464
H     3.58495   2.23691   0.33328
H     2.42995   2.00706  -0.97546
H     3.46544   3.44182  -0.95585
C    -0.93103   2.66974   2.90879
H    -1.64283   3.33221   3.39356
H    -1.48146   1.93599   2.31908
H    -0.37877   2.12977   3.67945
O    -1.58395   0.00001   0.46216
