33

Ni    0.00000   0.00000   0.00000
Cl   -0.47928  -1.45092   1.58336
O    -2.75058   0.25282  -1.64129
O     2.53267  -1.56238   1.34206
N    -1.92198   0.76582  -0.69569
N    -0.26192   1.37687   1.25755
N     2.18842  -0.59386   0.46224
N     1.28569   1.18229  -1.26296
C    -2.38782   1.56352   0.18584
H    -3.42667   1.88119   0.21794
C    -1.45655   1.99998   1.20870
C    -1.79810   2.98886   2.13151
H    -2.76630   3.46016   2.06763
C    -0.89366   3.34203   3.11364
H    -1.13922   4.10086   3.84053
C     0.33238   2.69297   3.15005
H     1.06617   2.92804   3.90379
C     0.59956   1.71792   2.20428
H     1.53775   1.18058   2.21737
C     3.05482  -0.13724  -0.34965
H     4.08652  -0.47889  -0.39129
C     2.59061   0.86712  -1.29395
C     3.46318   1.45055  -2.21227
H     4.50591   1.17350  -2.20773
C     2.97163   2.36952  -3.12028
H     3.62573   2.82885  -3.84625
C     1.62187   2.68308  -3.08314
H     1.19250   3.38762  -3.77723
C     0.82342   2.06336  -2.13371
H    -0.23485   2.28296  -2.07837
H    -2.19428  -0.43524  -2.07860
H     1.65578  -1.82115   1.73807
O    -0.09912  -1.12193  -1.20580
