50

C     0.37271   1.93956  -0.19688
C     1.18026   3.92147  -0.78253
H     1.69897   4.63308  -1.39090
C     0.51450   4.08155   0.38546
H     0.35172   4.95427   0.98340
C     1.63992   1.99564  -2.30659
H     1.49840   0.90934  -2.24468
H     2.70499   2.21945  -2.38138
H     1.12438   2.36445  -3.19545
C    -0.70404   2.51187   1.92994
H    -1.24629   1.56475   1.72945
H    -1.43517   3.29641   2.14342
C     0.23876   2.34256   3.09743
C     1.18219   1.31035   3.12708
C     2.03268   1.19454   4.22541
H     2.74622   0.38217   4.25416
C     1.96841   2.09482   5.27127
H     2.63815   1.99400   6.11198
C     1.03875   3.12097   5.23751
H     0.97735   3.82628   6.05220
C     0.18271   3.23879   4.15719
H    -0.54799   4.03501   4.13911
C     1.64098  -1.44586   2.79754
C     0.57049  -1.90219   3.56308
H    -0.36469  -1.35405   3.54533
C     0.69846  -3.05575   4.30968
H    -0.13431  -3.41563   4.89536
C     1.89317  -3.75993   4.29180
H     1.99122  -4.66799   4.86801
C     2.95565  -3.31021   3.52682
H     3.88223  -3.86535   3.50774
C     2.83470  -2.15468   2.77383
H     3.66194  -1.81032   2.16756
C     2.93602   0.41276   1.01879
C     3.17242  -0.29918  -0.16078
H     2.43918  -1.04089  -0.49383
C     4.32629  -0.07625  -0.88753
H     4.51186  -0.63457  -1.79306
C     5.23978   0.87532  -0.45637
H     6.13852   1.05692  -1.02677
C     4.99801   1.59679   0.70015
H     5.70624   2.34291   1.02975
C     3.84994   1.36846   1.44180
H     3.66569   1.93757   2.34232
Cl   -0.23079  -2.22696   0.37377
N     1.08697   2.59656  -1.12200
N     0.02172   2.84989   0.72774
P     1.33644   0.04468   1.80991
Pd    0.00000   0.00000   0.00000
O    -0.99319   0.02718  -1.31732
