29

Hg    0.00000   0.00000   0.00000
Cl   -0.01339   0.28792  -2.26407
S    -2.62442  -1.11821   0.96226
N     2.29465  -0.99571   0.12696
N     0.36740  -1.91910   1.86662
H     0.38535  -2.86289   1.48187
C     3.16021  -0.87203  -0.87162
H     2.76039  -0.47038  -1.79320
C     4.49126  -1.23486  -0.75681
H     5.16191  -1.11503  -1.59220
C     4.93274  -1.74950   0.45196
H     5.96349  -2.04276   0.58419
C     4.02569  -1.88786   1.48856
H     4.33158  -2.28904   2.44268
C     2.70674  -1.49704   1.28922
C     1.68701  -1.59086   2.39134
H     2.02259  -2.31045   3.15396
H     1.61079  -0.60175   2.85942
C    -0.67734  -1.82842   2.87592
H    -0.69832  -0.79558   3.23509
H    -0.47056  -2.48972   3.73459
C    -2.02989  -2.21340   2.29932
H    -2.79423  -2.20701   3.07555
H    -1.98943  -3.20425   1.84554
C    -3.17840   0.31468   1.93208
H    -3.88720  -0.02562   2.68136
H    -3.66943   0.98168   1.23030
H    -2.32691   0.81611   2.38328
O     0.11402   1.06394   1.25600
