31

Pd    0.00000   0.00000   0.00000
O     2.51883  -1.32527  -0.54528
N     1.22215  -1.15940  -0.97167
N    -1.22553   1.15949   0.97833
C    -1.24948  -0.62529  -1.44850
C    -2.58111  -0.32457  -1.70237
C    -3.24490  -0.87796  -2.79147
C    -2.58768  -1.74232  -3.65013
C    -1.26044  -2.06172  -3.42719
C    -0.59356  -1.50998  -2.33696
C     0.80467  -1.78471  -2.01657
C     1.66514  -2.70369  -2.81895
C    -1.42353   2.41928   0.58824
C    -2.00787   3.36555   1.41166
C    -2.40748   2.99254   2.68622
C    -2.20575   1.67948   3.08475
C    -1.61072   0.79571   2.20251
H     2.57931  -0.73799   0.26443
H    -3.12483   0.34859  -1.04781
H    -4.28238  -0.63109  -2.96845
H    -3.11024  -2.16783  -4.49441
H    -0.74844  -2.73523  -4.09871
H    -1.09651   2.66859  -0.41938
H    -2.14120   4.37670   1.06146
H    -2.86113   3.70844   3.35417
H    -2.49595   1.34670   4.06856
H    -1.42204  -0.23997   2.47981
H     1.74084  -2.34399  -3.84383
H     1.22825  -3.70082  -2.83761
H     2.65939  -2.75537  -2.38273
O     1.17684   0.40386   1.08372
