35

Pt    0.00000   0.00000   0.00000
O     0.54746   0.05334   1.90566
O     0.99963  -1.07208   3.67551
O     1.14603  -3.56016   3.52023
O     1.05190  -5.86086   1.77231
O     1.12782  -5.25063  -1.03027
O     1.25048  -1.76223  -2.34082
O     0.11689  -3.54930  -2.69568
N     0.76124  -1.05190   2.48839
N     0.68015  -2.76895  -1.96107
C    -0.96633   0.02049  -2.85141
C     0.52824  -1.93206   0.30872
C     0.74151  -2.18315   1.67795
C     0.98050  -3.48091   2.20421
C     1.00488  -4.55428   1.30053
C     0.94057  -4.32422  -0.08845
C     0.69057  -3.01246  -0.54908
C     1.65143  -4.71242   4.16607
H     0.88127  -5.47595   4.29139
H     1.97050  -4.35940   5.14627
H     2.49980  -5.13590   3.62737
C    -0.23558  -6.44433   1.89358
H    -0.76119  -6.46290   0.93347
H    -0.85290  -5.90104   2.61706
H    -0.07049  -7.46156   2.24360
C     1.82379  -6.45673  -0.77349
H     2.66993  -6.29616  -0.10399
H     2.17915  -6.78624  -1.74960
H     1.16820  -7.22162  -0.35420
N    -0.61137  -0.07483  -1.76000
C    -1.38206   0.09495  -4.21141
H    -0.65078   0.67672  -4.77272
H    -2.35611   0.57922  -4.27648
H    -1.43929  -0.91056  -4.62923
O    -0.36086   1.60997   0.01669
