68

Au    0.00000   0.00000   0.00000
P     3.07510   0.07602   0.19158
P     0.91179   2.03908   0.00614
C     3.00514  -1.01751   1.65392
N     3.71684  -0.60258   2.69180
C     3.66183  -1.29492   3.81441
H     4.27350  -0.91608   4.62434
C     2.87734  -2.42677   3.96971
H     2.85586  -2.95719   4.90924
C     2.11827  -2.84990   2.88775
H     1.48199  -3.71945   2.96286
C     2.17831  -2.13847   1.70285
H     1.59245  -2.43704   0.84673
C     4.85127   0.51010   0.19477
C     5.32496   1.28132   1.25428
H     4.66485   1.51469   2.07617
C     6.63325   1.72616   1.25618
H     6.99970   2.31199   2.08702
C     7.47078   1.43319   0.19158
H     8.49263   1.78387   0.19285
C     6.99048   0.70063  -0.88064
H     7.63566   0.48231  -1.71976
C     5.68332   0.24676  -0.88739
H     5.31315  -0.31403  -1.73436
C     3.02379  -1.18727  -1.12669
C     2.26862  -0.95972  -2.27017
H     1.72759  -0.02943  -2.37841
C     2.20697  -1.91758  -3.26685
H     1.60917  -1.73708  -4.14807
C     2.90216  -3.10600  -3.12861
H     2.84529  -3.85910  -3.90062
C     3.67237  -3.33108  -1.99799
H     4.22038  -4.25620  -1.89213
C     3.73753  -2.37752  -1.00081
H     4.34094  -2.55006  -0.11910
C    -0.35446   3.36095  -0.05871
N     0.10007   4.54302  -0.45572
C    -0.74707   5.55336  -0.49766
H    -0.33467   6.49764  -0.83002
C    -2.08549   5.43619  -0.14732
H    -2.74233   6.29020  -0.20409
C    -2.55499   4.20085   0.27214
H    -3.59020   4.06996   0.55253
C    -1.67112   3.13542   0.31978
H    -1.97598   2.14467   0.63027
C     1.88229   2.51922  -1.43859
C     1.19405   2.51106  -2.65011
H     0.13182   2.29285  -2.65401
C     1.86680   2.76808  -3.82883
H     1.33394   2.75928  -4.76842
C     3.22903   3.02555  -3.80313
H     3.75711   3.21749  -4.72544
C     3.91280   3.03635  -2.59894
H     4.97424   3.23580  -2.57832
C     3.24507   2.78249  -1.41374
H     3.78014   2.79763  -0.47480
C     1.76543   2.58912   1.50011
C     1.70090   1.78075   2.62972
H     1.15833   0.84384   2.58052
C     2.32244   2.18129   3.79747
H     2.27973   1.55112   4.67319
C     3.00337   3.38782   3.83693
H     3.49973   3.69533   4.74559
C     3.03867   4.20795   2.71957
H     3.55499   5.15595   2.76193
C     2.41167   3.82009   1.54959
H     2.40216   4.46337   0.68095
O    -0.62831  -1.52554  -0.02169
