35

Zr    0.00000   0.00000   0.00000
Cl   -1.31883   0.13252   1.92082
C    -0.08465  -2.39232   0.26537
C     0.41853  -2.18601  -1.04607
H    -0.06321  -2.50734  -1.96294
C     1.70455  -1.60915  -0.94090
H     2.38873  -1.44792  -1.76508
C     2.00816  -1.46333   0.43241
H     2.96558  -1.16586   0.84267
C     0.90771  -1.94589   1.17852
H     0.86610  -2.05586   2.25690
C    -1.40953  -3.01540   0.61020
H    -2.17037  -2.64925  -0.08809
H    -1.70136  -2.72381   1.62467
C    -1.33273  -4.54689   0.52799
H    -1.05543  -4.83739  -0.48751
H    -0.54218  -4.89120   1.19897
C    -2.64603  -5.22820   0.91071
H    -2.47168  -6.30487   0.97641
H    -2.95656  -4.88310   1.89917
C    -3.76580  -4.97106  -0.09106
H    -4.65369  -5.53558   0.18409
H    -3.46124  -5.27805  -1.08924
H    -4.03221  -3.91819  -0.12043
C     1.90962   1.44046  -0.66539
H     2.87772   1.10122  -1.01234
C     1.58561   1.78701   0.66866
H     2.25631   1.74369   1.51942
C     0.30959   2.39915   0.65885
H    -0.17479   2.86709   1.50739
C    -0.16874   2.39631  -0.66632
H    -1.08798   2.85549  -1.01141
C     0.81462   1.79079  -1.48820
H     0.78598   1.73654  -2.57104
O    -1.31820  -0.08634  -0.98863
