40

Ti    0.00000   0.00000   0.00000
C    -0.95062   3.21238  -0.19085
H    -2.00029   3.05146   0.08538
H    -0.73679   4.28476  -0.21758
C    -0.69853   2.56796  -1.50225
C    -0.22523   0.96827  -2.97732
H    -0.92463   0.17545  -3.27066
H     0.78693   0.56072  -3.10784
C    -0.43750   2.24342  -3.70776
H    -0.36758   2.33794  -4.77450
C    -0.71931   3.19815  -2.80465
H    -0.92658   4.23724  -2.97721
C     1.54426   3.34768   1.18832
C     2.17114   3.56686   2.41188
H     1.72258   3.17958   3.31687
C     3.35901   4.27271   2.46435
H     3.84009   4.44488   3.41569
C     3.93669   4.74775   1.29823
H     4.86677   5.29449   1.34047
C     3.33047   4.50702   0.07538
H     3.79158   4.86061  -0.83491
C     2.14247   3.80290   0.01593
H     1.68598   3.58738  -0.94188
C    -0.84062   2.78240   2.62470
C    -1.06619   4.11959   2.94244
H    -0.69706   4.89907   2.29001
C    -1.74943   4.44398   4.09911
H    -1.92693   5.48039   4.34632
C    -2.20497   3.44149   4.94213
H    -2.73901   3.70068   5.84423
C    -1.97343   2.11180   4.63195
H    -2.32546   1.33339   5.29181
C    -1.29029   1.77816   3.47465
H    -1.10407   0.74173   3.21969
Cl    2.12371   0.49055  -0.57164
Cl    0.52830  -0.99093   1.84552
Cl   -0.28687  -1.74156  -1.27002
N    -0.42247   1.30438  -1.59206
P     0.05128   2.31140   1.11052
O    -1.59020   0.23807   0.37026
