29

C    -1.82051  -0.51382  -0.43277
C    -0.42078   0.42999   1.85142
C    -0.25447   1.86764  -0.49011
C     1.07241  -0.28351  -3.03893
C     2.00845  -1.11373  -3.68942
H     2.38899  -0.98841  -4.68250
C     2.34317  -2.10400  -2.80301
C     0.40811   0.92968  -3.57171
H     0.33023   0.87239  -4.65444
H     0.99283   1.81291  -3.31392
H    -0.58237   1.04021  -3.13285
C     3.30514  -3.21208  -3.02458
H     2.82119  -4.18659  -2.97503
H     4.11867  -3.18715  -2.30187
H     3.73166  -3.09730  -4.01796
C     1.51688  -2.50292  -0.44489
C     2.31954  -3.72868  -0.16538
H     2.11495  -4.51065  -0.89317
H     2.07465  -4.10474   0.82599
H     3.38270  -3.49657  -0.18768
N     0.85335  -0.74887  -1.82865
N     1.61540  -1.86074  -1.66496
N     0.70179  -1.98044   0.39069
H     0.64818  -2.44916   1.29201
O    -2.89016  -0.83728  -0.70510
O    -0.56207   0.64557   2.96563
O    -0.28699   2.97549  -0.77767
Re    0.00000   0.00000   0.00000
O     1.59394   0.32790   0.27268
