57

Pd    0.00000   0.00000   0.00000
C    -2.01915  -1.76023  -0.81882
C    -2.71028  -0.92270   0.27163
C    -2.04856   0.42675   0.44877
C    -1.60533   1.14524  -0.66972
C    -1.12524   0.39986  -1.76471
C    -1.80655  -0.91067  -2.09216
C    -2.86719  -2.95420  -1.20856
C    -2.72258  -5.18267  -1.98685
O    -4.06860  -2.96039  -1.26264
O    -2.08944  -3.99022  -1.53942
P     1.98257  -0.51930  -0.96865
C     3.38842  -1.44201  -0.26910
C     3.67649  -1.24257   1.07793
C     4.78101  -1.85349   1.64351
C     5.60167  -2.65831   0.86991
C     5.31498  -2.85792  -0.47080
C     4.21232  -2.25113  -1.04497
C     2.80037   1.07512  -1.30179
C     3.93807   1.19129  -2.09393
C     4.52030   2.43138  -2.28273
C     3.98308   3.55377  -1.67153
C     2.86536   3.43873  -0.86063
C     2.27333   2.20205  -0.67457
C     1.71793  -1.32343  -2.57740
C     1.29017  -2.65078  -2.52853
C     0.94907  -3.31744  -3.68894
C     1.01832  -2.65980  -4.90822
C     1.42454  -1.33661  -4.95986
C     1.76879  -0.66440  -3.79916
H    -1.03858  -2.13842  -0.45569
H    -2.68963  -1.46938   1.22000
H    -3.76223  -0.77929  -0.00591
H    -2.36586   0.97744   1.33304
H    -1.42237   2.22006  -0.60511
H    -0.73805   0.93722  -2.62846
H    -1.21517  -1.47646  -2.81786
H    -2.78429  -0.70296  -2.54562
H    -2.23031  -5.49535  -2.90707
H    -3.78300  -4.99561  -2.16590
H    -2.60638  -5.95215  -1.22252
H     3.01395  -0.63191   1.67690
H     4.99965  -1.70291   2.69013
H     6.46456  -3.13487   1.31193
H     5.95294  -3.48822  -1.07392
H     3.98981  -2.41334  -2.09088
H     4.36236   0.31067  -2.55619
H     5.39844   2.52430  -2.90502
H     4.44321   4.51936  -1.82093
H     2.46079   4.31259  -0.37150
H     1.40041   2.09238  -0.01460
H     1.22896  -3.14835  -1.56715
H     0.62156  -4.34546  -3.64369
H     0.74807  -3.17673  -5.81711
H     1.46894  -0.82321  -5.90934
H     2.07327   0.37209  -3.84041
O     0.38567  -0.33918   1.56803
