58

Ta    0.00000   0.00000   0.00000
Cl    1.71198  -1.16146   1.03419
Cl   -1.07017   1.15054  -1.79806
P     1.84776   0.81867  -2.15527
C    -1.00072   2.01147   1.35972
C     0.00901   1.63713   2.29357
C    -0.38704   0.42764   2.91241
C    -1.62130   0.02498   2.35848
C    -2.00014   0.99329   1.38257
C    -1.17735   3.35181   0.71834
C     1.21845   2.42088   2.68674
C     0.40366  -0.27248   3.96231
C    -2.46231  -1.13864   2.75613
C    -3.33986   1.06670   0.72261
C     1.61956   1.54790  -0.54791
C     1.07575  -0.77194  -1.93894
C     3.61162   0.62971  -2.56801
C     4.08458  -0.49698  -3.22703
C     5.42679  -0.59450  -3.54822
C     6.29627   0.43193  -3.21823
C     5.82411   1.56266  -2.57052
C     4.48397   1.66320  -2.24779
C     1.26447   1.76540  -3.58633
C     1.05954   3.13590  -3.51832
C     0.65553   3.82404  -4.64782
C     0.46320   3.14968  -5.84228
C     0.68061   1.78296  -5.91215
C     1.08573   1.08968  -4.78733
H    -1.41076   3.24503  -0.34059
H    -0.28232   3.96051   0.82083
H    -2.00469   3.88216   1.19146
H     1.41837   3.22432   1.98292
H     2.09073   1.77002   2.73216
H     1.07722   2.86200   3.67513
H     0.81991   0.44116   4.67129
H     1.23486  -0.80953   3.49789
H    -0.20380  -0.99227   4.50436
H    -2.01873  -1.68265   3.58551
H    -2.57027  -1.82740   1.91546
H    -3.45990  -0.80649   3.04412
H    -3.28195   1.64265  -0.19790
H    -4.06520   1.54591   1.38296
H    -3.70012   0.06759   0.48397
H     2.56614   1.46869  -0.00534
H     1.35143   2.60192  -0.63121
H     0.41836  -1.05715  -2.76063
H     1.82465  -1.54664  -1.76070
H     3.40428  -1.29721  -3.48267
H     5.79607  -1.47378  -4.05502
H     7.34407   0.35106  -3.46599
H     6.50272   2.36352  -2.31659
H     4.10356   2.54070  -1.74240
H     1.19789   3.65887  -2.58360
H     0.48560   4.88924  -4.59529
H     0.14123   3.68948  -6.72023
H     0.53127   1.25781  -6.84389
H     1.25766   0.02310  -4.83266
O    -0.95129  -1.33448  -0.19159
