47

Pd    0.00000   0.00000   0.00000
N     1.10023   0.89589   1.55318
N    -1.46439   0.98833   0.91963
C     2.39975   0.77348   1.79106
C     3.00277   1.32215   2.91084
C     2.21265   2.02085   3.81290
C     0.85766   2.14502   3.56593
C     0.31552   1.56775   2.41585
C    -2.74034   1.02161   0.53588
C    -3.72184   1.68744   1.24462
C    -3.36992   2.35559   2.41043
C    -2.04871   2.32741   2.81213
C    -1.10535   1.63529   2.05177
C    -1.15200  -0.92923  -1.32269
C    -1.65786  -2.13027  -0.84355
C    -2.48801  -2.96322  -1.60845
C    -2.78862  -2.55902  -2.93283
C    -2.30087  -1.35757  -3.40695
C    -1.48972  -0.53326  -2.61663
C    -0.50199  -3.55887   0.65756
C    -3.87242  -4.95194  -1.55049
C    -3.84175  -3.03257  -5.02357
C    -0.98855   0.73662  -3.11905
O    -1.33552  -2.41931   0.48495
O    -2.91447  -4.09013  -0.97816
O    -3.57157  -3.39842  -3.69287
O    -1.23855   1.24423  -4.18653
H     2.96336   0.21375   1.05127
H     4.06197   1.20356   3.07135
H     2.64527   2.46188   4.69825
H     0.23407   2.68067   4.26267
H    -2.98013   0.48971  -0.37631
H    -4.73976   1.68301   0.89046
H    -4.10842   2.88662   2.99071
H    -1.75250   2.84182   3.71147
H    -2.51951  -1.01720  -4.40625
H    -0.33916  -3.65054   1.73057
H    -0.98802  -4.46064   0.27910
H     0.45758  -3.41028   0.14949
H    -4.07865  -5.69384  -0.77836
H    -4.79262  -4.42168  -1.80171
H    -3.48815  -5.44970  -2.44202
H    -4.43929  -3.84746  -5.43057
H    -4.41467  -2.10147  -5.07849
H    -2.92234  -2.92942  -5.60762
H    -0.31353   1.25588  -2.37024
O     1.28322  -0.78101  -0.68255
