67

Ag    0.00000   0.00000   0.00000
C     2.13352  -0.04938   0.06790
C     4.24115  -0.31436   0.77567
H     5.02008  -0.56296   1.46663
C     4.29131   0.13289  -0.50139
H     5.12249   0.35021  -1.14005
C     2.34739  -0.19163  -3.20455
C     2.46796  -1.67525  -2.94823
H     2.92752  -1.83428  -1.96726
C     2.58845   0.74437  -2.19620
C     1.78780   1.63134  -4.67585
H     1.46806   1.97883  -5.64671
C     2.43003   2.11643  -2.40605
C     1.07060  -2.29903  -2.92067
H     0.45250  -1.81054  -2.16074
H     1.13283  -3.35909  -2.68683
H     0.57731  -2.18263  -3.88198
C     3.35319  -2.36215  -3.98958
H     2.89749  -2.33263  -4.97528
H     3.50253  -3.40474  -3.71772
H     4.32584  -1.87721  -4.04518
C     2.02382   2.54133  -3.66355
H     1.88003   3.59343  -3.85171
C     1.94393   0.27808  -4.44721
H     1.73926  -0.42153  -5.24208
N     2.91429  -0.41765   1.10180
N     2.99340   0.28715  -0.91271
C     2.41036  -0.86020   2.35504
C     1.64699  -0.37319   4.56408
H     1.42188   0.33235   5.34810
C     2.18306  -2.22506   2.54788
C     2.14499   0.08258   3.35087
C     2.41378  -3.22391   1.43850
H     2.96513  -2.73816   0.62671
C     1.06143  -3.67950   0.88459
H     0.48278  -4.18604   1.65257
H     1.20373  -4.36051   0.04889
H     0.48374  -2.81765   0.53754
C     3.24403  -4.42009   1.90673
H     4.17297  -4.08576   2.36448
H     3.48687  -5.05577   1.05809
H     2.69949  -5.01930   2.63096
C     1.68328  -2.63599   3.77597
H     1.48543  -3.68178   3.94975
C     1.42283  -1.71954   4.77637
H     1.03049  -2.05602   5.72421
C     3.18210   2.21139   4.20702
H     2.66312   2.19926   5.16130
H     3.38944   3.24748   3.94869
H     4.12935   1.68845   4.32342
C     2.33932   1.56073   3.10875
H     2.86624   1.70320   2.15962
C     2.63393   3.11040  -1.28706
H     3.11610   2.60672  -0.44279
C     3.53795   4.27029  -1.70760
H     4.47793   3.89705  -2.10931
H     3.75594   4.89915  -0.84723
H     3.06155   4.88798  -2.46361
C     1.27045   3.62228  -0.81581
H     1.38999   4.30078   0.02548
H     0.63872   2.78584  -0.50206
H     0.75950   4.14811  -1.61808
C     0.97159   2.23818   2.99473
H     0.38518   1.77587   2.19426
H     1.08930   3.29563   2.77066
H     0.41346   2.13839   3.92184
O    -1.64866   0.04237  -0.05116
