69

Fe    0.00000   0.00000   0.00000
I     2.26262   0.53526  -0.85754
O     2.47031  -3.82330   1.31227
H     3.05548  -4.34824   0.75537
N     0.01933   0.24611   1.97186
N     0.12929  -0.74324   2.88245
N     0.06946  -1.97726   0.22977
N     0.14547  -2.59552   1.42297
C     3.07137  -2.62955   1.59431
C     4.40886  -2.34431   1.28302
C     4.91681  -1.12382   1.69984
H     5.93758  -0.88271   1.47080
C     4.17288  -0.18259   2.39966
C     2.85184  -0.48629   2.67303
H     2.24639   0.22036   3.21143
C     2.28774  -1.68174   2.25455
C     0.81171  -1.96841   2.53909
H     0.72592  -2.65483   3.38823
C    -0.37168   1.33363   2.62589
C    -0.50491   1.03821   3.99153
H    -0.80884   1.71180   4.76577
C    -0.16715  -0.28860   4.12811
C    -0.58973   2.62737   1.92763
H    -1.65502   2.82210   1.80707
H    -0.12679   2.59824   0.93700
H    -0.15375   3.44364   2.49966
C    -0.10264  -1.14082   5.34190
H     0.91602  -1.48407   5.52580
H    -0.74982  -2.01223   5.24263
H    -0.43303  -0.56400   6.20100
C    -0.40761  -2.86239  -0.63723
C    -0.65271  -4.07597   0.02114
H    -1.04783  -4.97125  -0.41250
C    -0.29231  -3.87645   1.33354
C    -0.61700  -2.52251  -2.06942
H    -0.13666  -1.56879  -2.30206
H    -1.68071  -2.43959  -2.28977
H    -0.19459  -3.29610  -2.70750
C    -0.32845  -4.81429   2.48258
H    -0.93113  -4.41415   3.29803
H     0.67901  -5.00730   2.84965
H    -0.76628  -5.75457   2.16038
C     5.27241  -3.31938   0.47933
C     4.64145  -3.54631  -0.90749
H     4.47246  -2.58248  -1.38329
H     3.69123  -4.07589  -0.89370
H     5.32281  -4.12243  -1.53060
C     5.47374  -4.63773   1.24900
H     4.55112  -5.13480   1.53774
H     6.03296  -4.43976   2.16169
H     6.04992  -5.33300   0.64132
C     6.67769  -2.76156   0.21355
H     7.21592  -2.57878   1.14043
H     6.62966  -1.84404  -0.36651
H     7.24624  -3.49117  -0.35966
C     4.81643   1.12672   2.82584
C     3.78965   2.12953   3.36014
H     3.02707   2.32852   2.61106
H     4.28716   3.06829   3.59368
H     3.31481   1.77111   4.27129
C     5.51984   1.77216   1.62405
H     5.86789   2.76806   1.88809
H     4.83187   1.85402   0.78700
H     6.38031   1.19328   1.30284
C     5.84053   0.83093   3.93050
H     6.59988   0.13650   3.58020
H     5.34948   0.39104   4.79655
H     6.33209   1.74997   4.24152
O    -1.62132   0.18403  -0.24484
