47

Pd    0.00000   0.00000   0.00000
C    -0.29375  -0.90400  -1.76746
C    -0.57359  -2.23098  -2.07829
H    -0.56822  -2.98097  -1.29857
C    -0.86156  -2.60900  -3.38186
H    -1.06973  -3.64608  -3.60320
C    -0.89534  -1.66787  -4.39528
H    -1.13247  -1.96324  -5.40722
C    -0.62373  -0.34172  -4.10827
H    -0.65041   0.40086  -4.89529
C    -0.32095   0.03728  -2.80859
C     0.04680   1.46876  -2.47976
H    -0.64112   2.16469  -2.98336
N     0.02084   1.61792  -1.03999
C    -0.11040   2.75354  -0.42103
C     0.12956   2.71551   1.01742
N     0.22754   1.53935   1.53724
C     0.74344   1.24002   2.85079
H     1.30530   2.08718   3.27997
C     1.70476   0.07217   2.64947
C     1.80290  -0.98189   3.54498
H     1.21594  -0.98889   4.44892
C     2.63598  -2.05592   3.28003
H     2.68757  -2.87309   3.98384
C     3.37877  -2.09849   2.11492
H     4.00726  -2.94968   1.90054
C     3.31449  -1.04012   1.22468
H     3.90968  -1.05173   0.32247
C     2.48916   0.04268   1.48927
H     2.52040   0.90431   0.82026
C     1.48581   1.73931  -2.94898
H     1.78233   2.76339  -2.72875
H     1.56618   1.56624  -4.01843
H     2.15679   1.05293  -2.43057
C    -0.37392   4.07871  -1.07877
H    -0.58379   3.97080  -2.13808
H     0.48892   4.73543  -0.96761
H    -1.22937   4.56458  -0.61105
C     0.33317   4.01095   1.75389
H     0.33992   3.86057   2.82933
H    -0.46893   4.70538   1.51486
H     1.27636   4.47168   1.45933
C    -0.44391   0.89134   3.75377
H    -1.16377   1.70879   3.74381
H    -0.12152   0.72899   4.77799
H    -0.92656  -0.00782   3.37263
O    -0.32318  -1.35871   0.87862
