37

Zn    0.00000   0.00000   0.00000
O     1.77432   0.53578  -0.47632
O    -2.05556  -1.48587   0.09411
H    -2.95552  -1.17742   0.26596
N    -0.45048   0.32128  -1.98339
N     0.54685  -1.97989   0.59414
C     0.70142   0.68758  -2.57758
C     1.86430   0.78802  -1.73968
C     3.05809   1.16442  -2.35407
H     3.94247   1.25025  -1.74137
C     3.11756   1.43708  -3.71595
H     4.06607   1.72813  -4.14488
C     2.00826   1.35016  -4.52379
H     2.06687   1.57000  -5.57880
C     0.77607   0.97630  -3.96803
C    -0.42106   0.86747  -4.70411
H    -0.40886   1.08059  -5.76361
C    -1.57828   0.49846  -4.07060
H    -2.51010   0.41150  -4.60725
C    -1.54900   0.22953  -2.69751
H    -2.44669  -0.06677  -2.17367
C    -0.37980  -2.82079   1.10526
C    -1.75422  -2.53226   0.90202
C    -2.71208  -3.31141   1.50403
H    -3.75725  -3.06606   1.38059
C    -2.34709  -4.42143   2.27602
H    -3.12335  -5.01476   2.73384
C    -1.03241  -4.75789   2.44237
H    -0.74864  -5.62145   3.02374
C    -0.02146  -3.96355   1.86712
C     1.35482  -4.22954   2.02162
H     1.66395  -5.09522   2.58943
C     2.27046  -3.38263   1.45879
H     3.33064  -3.55427   1.55552
C     1.81729  -2.25203   0.76428
H     2.51401  -1.53933   0.34699
O    -0.77890   0.74225   1.25095
