56

Fe    0.00000   0.00000   0.00000
Br    1.30115   0.09035   1.92454
P    -1.71646   0.87004   1.05367
P     1.68096  -0.45972  -1.32492
O    -1.40224   2.48591   0.77790
O     2.23301   1.07245  -1.65215
N     0.38652   1.78898  -0.48148
C    -0.34822   2.80478   0.00802
C    -0.06058   4.13302  -0.25366
H    -0.69308   4.89560   0.16677
C     1.04477   4.43229  -1.03419
H     1.29782   5.45652  -1.25156
C     1.82822   3.39713  -1.52125
H     2.70804   3.57192  -2.11621
C     1.47374   2.09575  -1.21536
C    -1.92757   0.96983   2.89566
H    -0.98187   1.41882   3.22991
C    -3.07149   1.88175   3.32356
H    -4.04014   1.43311   3.11627
H    -3.00889   2.84184   2.81404
H    -3.00708   2.06059   4.39546
C    -2.02383  -0.42848   3.49655
H    -2.02270  -0.36417   4.58270
H    -1.16799  -1.02962   3.19555
H    -2.92972  -0.94121   3.18361
C    -3.42870   0.87251   0.31081
H    -3.91200   1.78658   0.67821
C    -4.24864  -0.35375   0.68810
H    -5.18220  -0.35666   0.12692
H    -4.49448  -0.36126   1.74659
H    -3.70857  -1.26769   0.44939
C    -3.27756   0.96483  -1.20637
H    -2.88245   0.02962  -1.60170
H    -2.61342   1.78308  -1.49108
H    -4.24483   1.13981  -1.67425
C     3.31357  -1.31040  -1.13551
H     3.84073  -1.16559  -2.08614
C     4.15786  -0.70932  -0.01809
H     3.72184  -0.91003   0.95645
H     4.25070   0.36888  -0.13757
H     5.15571  -1.14407  -0.04242
C     3.03509  -2.79049  -0.89283
H     3.96884  -3.34383  -0.81472
H     2.44444  -3.22263  -1.69979
H     2.48563  -2.91943   0.03866
C     1.11017  -0.95058  -3.04102
H     0.67908  -1.95320  -2.94299
C     2.20787  -0.95731  -4.09786
H     1.75858  -1.03725  -5.08689
H     2.88239  -1.80038  -3.97098
H     2.78197  -0.03219  -4.05970
C    -0.00341   0.02222  -3.42981
H     0.40208   1.01754  -3.61298
H    -0.75307   0.09789  -2.63702
H    -0.50672  -0.31286  -4.33470
O    -0.71943  -1.45890  -0.27663
