53

Pt    0.00000   0.00000   0.00000
N    -2.08261  -0.76527   0.40397
N     2.31105  -0.00906   2.09785
C    -2.89020  -0.22341   1.49318
C    -2.73585  -0.43571  -0.86460
C    -1.91830  -2.22875   0.50964
C    -1.41960  -2.65032   1.89558
C    -0.88930  -2.68507  -0.50159
C    -1.01463  -3.91794  -1.12385
C    -0.03667  -4.36139  -1.99638
C     1.06927  -3.56774  -2.24111
C     1.19441  -2.33199  -1.62445
C     0.21998  -1.86519  -0.74818
C     2.48121   1.36393   2.54464
C     2.24646  -0.92878   3.21866
C     3.24416  -0.41291   1.03155
C     4.69739  -0.48294   1.50600
C     3.03964   0.46713  -0.19804
C     4.10995   1.07162  -0.84856
C     3.92706   1.81126  -2.00450
C     2.66237   1.96256  -2.54000
C     1.58471   1.38095  -1.89434
C     1.75946   0.63964  -0.73408
H    -2.35716  -0.29980   2.43843
H    -3.85183  -0.74695   1.57243
H    -3.08439   0.83250   1.30946
H    -2.19031  -0.87119  -1.70595
H    -2.78004   0.64884  -0.98687
H    -3.76482  -0.82252  -0.89158
H     0.83557  -0.21778   1.24178
H    -2.88755  -2.72166   0.31821
H    -2.18982  -2.54811   2.65550
H    -0.55285  -2.04702   2.16975
H    -1.11338  -3.69330   1.85733
H    -1.88238  -4.53275  -0.92371
H    -0.13912  -5.32133  -2.48081
H     1.83921  -3.90732  -2.91902
H     2.06851  -1.73091  -1.83643
H     2.54422   2.01839   1.67855
H     3.37845   1.48813   3.16011
H     1.61210   1.65718   3.13105
H     2.13766  -1.94787   2.85055
H     1.37712  -0.67820   3.82622
H     3.13275  -0.87316   3.86088
H     2.93336  -1.42882   0.74364
H     5.32207  -0.89417   0.71850
H     4.77723  -1.14310   2.36617
H     5.07382   0.49832   1.78237
H     5.11080   0.97513  -0.45989
H     4.77853   2.27032  -2.48472
H     2.51210   2.53497  -3.44351
H     0.58713   1.51942  -2.30796
O    -0.41165   1.51944   0.49431
