41

C    -1.39290   2.21963   1.89056
H    -0.60681   2.76114   1.37455
C    -2.05160   2.85169   2.97342
C    -3.05578   2.14422   3.60711
H    -3.58788   2.57403   4.44400
C    -3.38740   0.85616   3.15958
C    -4.40445   0.07876   3.75442
H    -4.95050   0.49596   4.58790
C    -4.68775  -1.17258   3.28615
H    -5.46504  -1.76266   3.74801
C    -3.97243  -1.70632   2.20184
H    -4.20622  -2.69915   1.84874
C    -2.98148  -0.98147   1.60033
H    -2.42632  -1.39387   0.76718
C    -2.66200   0.31060   2.06316
C    -2.58298  -0.22192  -2.01397
H    -3.00188   0.27153  -1.14187
C    -3.40995  -0.43540  -3.14163
C    -2.84406  -1.06018  -4.23668
H    -3.43067  -1.24836  -5.12480
C    -1.49608  -1.44627  -4.19867
C    -0.85156  -2.07897  -5.28342
H    -1.42231  -2.27287  -6.17986
C     0.46454  -2.43295  -5.19858
H     0.95246  -2.91532  -6.03204
C     1.19878  -2.17401  -4.02910
H     2.23845  -2.45910  -3.98155
C     0.60616  -1.56656  -2.95785
H     1.17763  -1.36768  -2.05622
C    -0.75105  -1.18813  -3.01305
Cd    0.00000   0.00000   0.00000
I     1.35930   2.14626  -0.90731
N    -1.67338   1.01739   1.45861
N    -1.32716  -0.58326  -1.94462
N    -1.72219   4.13386   3.30743
H    -2.03207   4.48552   4.19703
H    -0.85387   4.50393   2.95980
N    -4.69781   0.02816  -3.14097
H    -5.31880  -0.31546  -3.85343
H    -5.11986   0.25189  -2.25627
O     0.48945  -1.36655   0.78453
