70

C    -1.71780   1.12259   0.18300
H    -2.08877   1.41280  -0.80164
H    -1.53831   2.03614   0.75405
H    -2.49994   0.55719   0.69161
C    -0.97336   1.17882  -4.03764
H    -1.92288   0.74096  -3.69723
H    -0.91377   1.06636  -5.12492
C    -0.87640   2.63369  -3.60805
H    -0.17449   3.18818  -4.25022
H    -1.84953   3.13625  -3.65143
C     0.21366  -0.90807  -3.62838
H     1.15203  -1.29697  -3.24121
H     0.16807  -1.11406  -4.69978
H    -0.61834  -1.42959  -3.13819
C    -0.23466   3.78006  -1.51738
H     0.14043   3.53683  -0.52308
H    -1.19128   4.30150  -1.41557
H     0.47710   4.45611  -2.00985
C     2.85125   1.74550  -3.24433
H     3.29769   2.74629  -3.29507
H     2.11136   1.66198  -4.04355
C     3.93273   0.68685  -3.44805
H     4.30490   0.73261  -4.46827
H     3.52544  -0.30407  -3.26561
H     4.76865   0.84182  -2.77115
C     2.87482   1.72122  -0.75896
H     3.69230   0.99335  -0.71682
H     2.16678   1.48880   0.05593
C     3.43213   3.12381  -0.53418
H     3.85909   3.19027   0.46348
H     2.64601   3.86946  -0.62868
H     4.21496   3.34971  -1.25397
C    -2.71912  -2.64633   2.07756
H    -3.05564  -3.63191   2.41460
H    -3.30703  -2.36560   1.19171
C    -2.86043  -1.59270   3.16431
H    -3.86969  -1.16547   3.18790
H    -2.64455  -2.01856   4.15653
C    -0.94467  -3.60848   0.71454
H     0.13781  -3.66824   0.63637
H    -1.35539  -3.29976  -0.25481
H    -1.33121  -4.60151   0.95347
C    -1.79037   0.59104   3.60251
H    -1.01162   1.22741   3.18168
H    -1.53230   0.35465   4.64344
H    -2.73592   1.14194   3.59845
C     1.80671  -0.44630   2.84927
H     1.54520   0.27881   2.05756
H     2.73683  -0.94672   2.55855
C     2.02584   0.31552   4.15307
H     2.76446   1.09809   3.99784
H     2.39273  -0.34747   4.93269
H     1.09842   0.77193   4.49153
C     0.83301  -2.51560   3.82237
H    -0.10259  -3.07514   3.75336
H     0.93922  -2.15346   4.85253
C     1.99890  -3.43963   3.47754
H     1.92653  -4.35601   4.05759
H     2.95327  -2.96901   3.69841
H     1.97819  -3.68950   2.42001
N     0.17163   0.52574  -3.42526
N    -0.41517   2.55315  -2.24370
N     2.13345   1.59001  -1.99605
N    -1.29628  -2.70033   1.78652
N    -1.89894  -0.58665   2.78636
N     0.71316  -1.39345   2.91475
P     0.51322   1.17269  -1.89984
P    -0.58568  -1.16802   1.88073
Pt    0.00000   0.00000   0.00000
O     1.23021  -1.05901  -0.29591
