44

Hf    0.00000   0.00000   0.00000
Cl    0.59442  -1.56695  -2.27639
O    -0.34711  -1.66554  -0.90587
N     1.87809   1.05720  -0.68530
N     1.53918  -1.46118   0.96116
N    -1.40663  -0.70311   1.59092
N    -0.60755   2.12440   0.80888
C     2.03872   2.43023  -0.67261
C     3.44092   2.78840  -0.77002
C     4.15510   1.56504  -0.73815
C     3.15305   0.52511  -0.61831
C     3.31536  -0.79269  -0.40683
C     2.57984  -1.78730   0.11629
C     2.71049  -3.22697  -0.03048
C     1.65953  -3.78769   0.73555
C     0.94218  -2.66125   1.30629
C    -0.15085  -2.63381   2.07753
C    -1.12496  -1.77397   2.41441
C    -1.96224  -1.74436   3.59906
C    -2.70805  -0.54164   3.51590
C    -2.28098   0.10249   2.28965
C    -2.56136   1.33230   1.82260
C    -1.96982   2.23030   1.02379
C    -2.52716   3.37983   0.33177
C    -1.44498   3.96919  -0.36600
C    -0.28871   3.14125  -0.06737
C     0.96873   3.22583  -0.52108
C     3.94222   4.06490  -0.86979
C     4.31705   5.12424  -0.36270
C     5.51548   1.37222  -0.80077
C     6.61203   1.19994  -0.26507
C     3.65843  -3.87815  -0.78191
C     4.78190  -4.36904  -0.91816
C     1.34405  -5.11392   0.90493
C     1.40619  -6.17275   1.53468
C    -2.00176  -2.70359   4.58348
C    -1.57562  -3.20498   5.62602
C    -3.64392  -0.05724   4.39982
C    -3.97021   0.64899   5.35575
C    -3.84084   3.77739   0.35816
C    -4.77506   4.39380   0.87754
C    -1.45606   5.07436  -1.17977
C    -1.30132   6.28516  -1.36016
O    -0.94175   0.63586  -1.19636
