62

Pd    0.00000   0.00000   0.00000
N     1.73492  -0.00744   1.21804
C     1.77360  -0.50650   2.45028
H     0.82202  -0.76848   2.89841
C     2.95837  -0.67922   3.14643
H     2.94087  -1.08705   4.14362
C     4.14918  -0.32039   2.53623
H     5.09322  -0.44211   3.04501
C     4.10677   0.19813   1.25252
H     5.01184   0.49202   0.74329
C     2.87825   0.34356   0.61917
C     2.78489   0.92378  -0.75427
H     3.74523   0.92751  -1.26861
H     2.40560   1.94960  -0.68768
S     1.52260   0.12702  -1.81758
C     2.10991  -1.61083  -2.14045
C     3.50572  -1.55277  -2.74313
H     4.24404  -1.22799  -2.01208
H     3.52636  -0.87584  -3.59441
H     3.79228  -2.54426  -3.08827
C     1.09534  -2.12490  -3.15785
H     1.37749  -3.12084  -3.49192
H     1.04552  -1.46738  -4.02374
H     0.10473  -2.18167  -2.70929
C     2.06754  -2.44917  -0.87122
H     2.22028  -3.49688  -1.12701
H     1.08359  -2.36784  -0.38677
H     2.85100  -2.15886  -0.17051
C    -1.51631  -0.16189  -1.24060
C    -1.81594   0.61580  -2.29862
C    -1.24118   1.94771  -2.44209
C    -0.73993   2.46577  -3.57528
C    -2.07606  -1.49403  -0.98737
O    -1.35091  -2.43612  -0.70840
O    -3.40273  -1.56165  -1.00264
C    -3.96392  -2.80544  -0.60858
H    -3.67047  -3.59061  -1.30865
H    -5.04165  -2.66607  -0.61314
H    -3.61480  -3.07071   0.39152
C    -2.73782   0.15658  -3.38137
O    -3.53615   0.85917  -3.94279
O    -2.55738  -1.14217  -3.64203
C    -3.39719  -1.68885  -4.64924
H    -4.44410  -1.61639  -4.34804
H    -3.09825  -2.72777  -4.76111
H    -3.25662  -1.14493  -5.58548
C    -1.09244   2.68040  -1.13164
O    -0.06639   2.61059  -0.48403
O    -2.18906   3.28759  -0.75068
C    -2.16785   3.86221   0.55592
H    -2.01831   3.07864   1.30292
H    -3.13534   4.33677   0.69088
H    -1.36127   4.59337   0.63129
Br   -0.55958   1.45182  -5.14950
C    -0.16028   3.81502  -3.70651
O     0.49447   4.18260  -4.64613
O    -0.45872   4.57376  -2.64094
C     0.05492   5.89975  -2.62054
H     0.90512   5.94250  -1.93741
H    -0.74322   6.54955  -2.26558
H     0.37212   6.19242  -3.62311
O    -1.06446   0.14146   1.25276
