65

Au    0.00000   0.00000   0.00000
P     1.30175   1.23270   2.08810
N     0.29066  -0.00723   1.98323
C     0.37138  -0.95326   3.08099
C    -1.06611  -1.26298   3.45216
C    -1.74232  -0.47215   4.37080
H    -1.22211   0.32215   4.88548
C    -3.07976  -0.70809   4.63649
H    -3.59495  -0.09680   5.36236
C    -3.75412  -1.71892   3.97382
H    -4.79811  -1.90070   4.18187
C    -3.08826  -2.49076   3.03657
H    -3.61187  -3.27148   2.50539
C    -1.74997  -2.26277   2.77231
H    -1.23304  -2.85775   2.03393
C     1.15587  -0.26801   4.18203
C     1.72348   0.89179   3.81415
C     1.36492  -0.90077   5.51837
C     2.99045  -1.95880   6.83259
H     3.27048  -1.17291   7.53606
H     3.84204  -2.59927   6.61713
H     2.16290  -2.53698   7.24735
C     3.68225   3.88330   4.23409
H     3.11696   4.81477   4.18719
H     4.56758   3.95244   3.60087
H     3.97179   3.67046   5.26507
C     2.57327   1.81314   4.56606
C     2.85354   1.26351   1.14474
C     3.98387   0.63290   1.65481
H     3.95625   0.19869   2.64676
C     5.13197   0.55978   0.88689
H     6.01063   0.07055   1.28081
C     5.15003   1.10449  -0.38757
H     6.04601   1.03966  -0.98666
C     4.01958   1.72273  -0.90011
H     4.03002   2.13476  -1.89756
C     2.86811   1.80115  -0.13900
H     1.97548   2.26369  -0.53936
C     0.42301   2.78701   1.85579
C     1.07880   3.97180   1.54272
H     2.15130   3.97598   1.41112
C     0.34347   5.13508   1.40315
H     0.84300   6.05931   1.15216
C    -1.03139   5.11606   1.57930
H    -1.59947   6.02703   1.46350
C    -1.68041   3.93378   1.90145
H    -2.75122   3.92302   2.03849
C    -0.95490   2.76610   2.04311
H    -1.43795   1.82801   2.28329
C     1.18221  -2.21354   2.80738
C     2.09246  -2.27168   1.76544
H     2.19545  -1.43333   1.08986
C     2.85670  -3.40931   1.56965
H     3.55612  -3.44443   0.74784
C     2.72470  -4.49036   2.42236
H     3.32316  -5.37634   2.27163
C     1.82059  -4.43300   3.47098
H     1.71252  -5.27379   4.14006
C     1.05402  -3.29977   3.66656
H     0.34641  -3.25696   4.48245
O     0.53632  -0.98134   6.38276
O     2.60778  -1.36963   5.59453
O     2.95287   1.70357   5.70151
O     2.86100   2.83502   3.74261
O    -0.13045   0.18605  -1.63428
