18

W     0.00000   0.00000   0.00000
F    -0.34704  -2.91843  -0.24366
F    -0.43148   1.80538  -0.15433
F    -1.68703  -0.09365  -0.80480
F     1.73180   0.62267  -0.51612
F     0.38975  -0.93380  -1.61413
F    -0.98496  -1.01231   1.27878
N     1.37761  -1.77660   0.60480
C     0.86639  -2.96975   0.32934
C     1.49110  -4.17471   0.59060
C     2.74443  -4.10994   1.18439
C     3.29774  -2.86990   1.48052
C     2.58492  -1.72119   1.17659
H     1.01392  -5.10782   0.33914
H     3.28033  -5.01883   1.41184
H     4.26971  -2.79688   1.94094
H     2.95603  -0.72199   1.38033
O     0.58885   0.48392   1.46341
