55

Cl    2.20435  -1.01859   0.52208
N     0.75660   0.49478  -2.21950
C     2.02300   0.27284  -2.52466
H     2.66431  -0.04772  -1.71293
Cd    0.00000   0.00000   0.00000
C     2.53891   0.41567  -3.81848
N     3.87740   0.23188  -4.05936
H     4.15779   0.06365  -5.01127
H     4.39169  -0.27507  -3.35787
N    -0.78129  -2.11122  -0.82970
C     1.65412   0.81505  -4.82229
H     2.00546   0.93499  -5.83795
C     0.33342   1.05124  -4.49092
H    -0.37274   1.36260  -5.24537
N    -3.89965  -3.43040  -2.14500
H    -4.39659  -2.55575  -2.18392
H    -4.17839  -4.12002  -2.82302
C    -0.07915   0.87967  -3.17845
H    -1.10294   1.05574  -2.87886
C    -2.04186  -2.21637  -1.21211
H    -2.67096  -1.35221  -1.03757
C    -2.56638  -3.35947  -1.82738
C    -1.69753  -4.43248  -2.03637
H    -2.05591  -5.33536  -2.51152
C    -0.38319  -4.31492  -1.62592
H     0.31080  -5.12835  -1.77265
C     0.03919  -3.13792  -1.02703
H     1.05901  -3.00707  -0.69286
N    -0.75655  -0.49473   2.21951
C    -2.02295  -0.27283   2.52469
H    -2.66429   0.04767   1.71295
C    -2.53885  -0.41565   3.81852
N    -3.87734  -0.23189   4.05940
H    -4.15772  -0.06364   5.01131
H    -4.39165   0.27503   3.35791
C    -1.65403  -0.81497   4.82233
H    -2.00536  -0.93490   5.83799
C    -0.33333  -1.05113   4.49095
H     0.37285  -1.36247   5.24540
C     0.07922  -0.87957   3.17847
H     1.10301  -1.05565   2.87887
N     0.78130   2.11123   0.82969
C     2.04187   2.21639   1.21209
H     2.67098   1.35223   1.03753
C     2.56638   3.35949   1.82738
N     3.89966   3.43044   2.14497
H     4.39662   2.55580   2.18386
H     4.17840   4.12006   2.82300
C     1.69752   4.43248   2.03640
H     2.05589   5.33535   2.51157
C     0.38317   4.31491   1.62598
H    -0.31083   5.12832   1.77275
C    -0.03920   3.13791   1.02706
H    -1.05902   3.00705   0.69292
O    -1.46428   0.67681  -0.34685
