34

Re    0.00000   0.00000   0.00000
P     2.14899  -0.25987  -1.17858
O     1.35612   2.37729   1.45614
O    -2.37100   0.05517   1.99933
O    -0.65123  -2.92887  -0.78601
O    -1.45630   1.38060  -2.36264
C     0.78946   1.60521   0.84890
C    -1.52769   0.05416   1.23335
C    -0.46583  -1.83387  -0.54660
C    -0.93605   0.86490  -1.48256
C     2.75192  -1.91022  -1.60613
C     3.36346  -2.10609  -2.84236
C     3.84256  -3.35672  -3.18316
C     3.71613  -4.41538  -2.29753
C     3.11024  -4.22281  -1.06713
C     2.62645  -2.97460  -0.71834
C     3.56183   0.57073  -0.41192
C     4.42528  -0.10617   0.44017
C     5.45228   0.58473   1.05839
C     5.61567   1.94130   0.83207
C     4.75256   2.61649  -0.01719
C     3.72357   1.93554  -0.63807
H     2.23640   0.32333  -2.44203
H     3.45702  -1.27881  -3.53338
H     4.31379  -3.50693  -4.14326
H     4.08914  -5.39167  -2.56908
H     3.01003  -5.04718  -0.37693
H     2.15525  -2.82265   0.24342
H     4.28394  -1.16169   0.62407
H     6.12296   0.06264   1.72441
H     6.41542   2.47685   1.32154
H     4.87869   3.67497  -0.19020
H     3.03548   2.45349  -1.29584
O     0.96771  -0.62552   1.18100
