57

Pt    0.00000   0.00000   0.00000
Cl   -0.98695  -0.84024   1.92845
P     2.04289   2.53563   2.66282
N     0.78492  -1.63673  -0.37116
N    -0.85999   1.74893   0.37146
H    -1.74202   2.09220   0.00096
N     0.93622   2.05358   1.63718
C     1.23780  -2.64804  -0.69004
C     1.86294  -3.87807  -1.09221
H     1.36766  -4.23413  -2.00046
H     1.71629  -4.62280  -0.30426
C     3.35676  -3.66155  -1.35467
H     3.49920  -2.89443  -2.11197
H     3.80707  -4.58732  -1.70367
H     3.86052  -3.34987  -0.44266
C    -0.22526   2.52569   1.18553
C    -0.76625   3.86485   1.61219
H     0.03243   4.60842   1.54243
H    -1.57748   4.16314   0.94526
C    -1.27417   3.77934   3.04920
H    -2.08871   3.06226   3.12114
H    -1.62748   4.75060   3.38774
H    -0.47345   3.44846   3.71098
C     3.55420   1.71554   2.09262
C     3.45274   0.69522   1.15675
H     2.47641   0.43035   0.75928
C     4.59589   0.04601   0.72711
H     4.51986  -0.73429  -0.01498
C     5.83294   0.40351   1.23885
H     6.72508  -0.10365   0.90161
C     5.93183   1.41492   2.18206
H     6.89742   1.69311   2.57856
C     4.79414   2.07261   2.61134
H     4.86630   2.87229   3.33658
C     2.42718   4.31612   2.74192
C     3.07681   4.85704   1.63640
H     3.38149   4.20077   0.83158
C     3.32086   6.21629   1.57730
H     3.82817   6.63665   0.72194
C     2.90953   7.03810   2.61575
H     3.10000   8.09991   2.57011
C     2.24856   6.50189   3.70916
H     1.92284   7.14535   4.51309
C     1.99980   5.14196   3.77397
H     1.48072   4.72257   4.62458
C     1.75372   1.90946   4.34342
C     2.52582   2.32014   5.42510
H     3.29655   3.06661   5.29185
C     2.29742   1.77107   6.67337
H     2.89012   2.09200   7.51772
C     1.31240   0.80944   6.84071
H     1.13869   0.38571   7.81891
C     0.55875   0.38747   5.75757
H    -0.20027  -0.36957   5.88136
C     0.77782   0.93242   4.50463
H     0.20254   0.59635   3.65145
O     0.68633   0.64527  -1.35465
