68

Pt    0.00000   0.00000   0.00000
P    -1.57001  -1.52174  -0.61286
P     0.11755   0.80602  -2.14963
C    -2.80661  -0.98452  -1.87060
H    -3.50783  -1.80941  -2.03271
H    -3.36317  -0.13948  -1.45562
C    -2.15292  -0.58143  -3.19322
H    -1.44367  -1.35855  -3.49387
H    -2.93223  -0.52998  -3.96023
C    -1.44869   0.77473  -3.13435
H    -2.11056   1.51625  -2.67353
H    -1.21741   1.12994  -4.14383
C    -2.54613  -2.29824   0.70121
C    -3.73719  -1.73466   1.14837
H    -4.16291  -0.88671   0.63240
C    -4.36387  -2.24436   2.27127
H    -5.28329  -1.79921   2.62043
C    -3.80378  -3.30807   2.95951
H    -4.28745  -3.69224   3.84458
C    -2.61613  -3.87105   2.51934
H    -2.17616  -4.69705   3.05779
C    -1.98487  -3.36624   1.39842
H    -1.05056  -3.79187   1.05750
C    -0.70948  -2.89752  -1.42555
C    -1.38253  -3.93761  -2.05880
H    -2.46304  -3.97357  -2.04163
C    -0.66340  -4.92932  -2.70004
H    -1.18420  -5.73733  -3.19253
C     0.72278  -4.88882  -2.71212
H     1.27718  -5.66323  -3.22079
C     1.39615  -3.86560  -2.06514
H     2.47501  -3.83946  -2.06245
C     0.68169  -2.87364  -1.41908
H     1.19618  -2.07400  -0.88924
C     0.51905   2.56724  -2.29479
C    -0.05578   3.41257  -1.35062
H    -0.67136   2.98679  -0.56545
C     0.18961   4.77081  -1.40048
H    -0.24786   5.42736  -0.66332
C     1.01202   5.28644  -2.39036
H     1.21283   6.34703  -2.42501
C     1.58775   4.44519  -3.32798
H     2.23466   4.85016  -4.09247
C     1.34405   3.08346  -3.28489
H     1.80122   2.42179  -4.00796
C     1.36490  -0.04230  -3.15807
C     2.60213  -0.20592  -2.53413
H     2.74588   0.20127  -1.54026
C     3.62348  -0.87731  -3.17709
H     4.57964  -0.99791  -2.69035
C     3.41526  -1.40209  -4.44345
H     4.20860  -1.93506  -4.94638
C     2.18885  -1.24302  -5.06579
H     2.02773  -1.64934  -6.05386
C     1.16309  -0.56431  -4.42987
H     0.21579  -0.44424  -4.93439
C    -0.14704  -0.63769   1.91786
C    -1.21927  -0.16071   2.66119
C    -1.50016  -0.57855   3.95227
C    -0.66809  -1.51895   4.54890
C     0.41845  -2.02096   3.84304
C     0.65679  -1.57688   2.54805
F    -2.05500   0.71885   2.05689
F    -2.57289  -0.11615   4.61500
F    -0.93008  -1.96041   5.78861
F     1.20354  -2.95292   4.40668
F     1.68295  -2.11672   1.85914
O     1.21310   1.01975   0.45936
