58

Pt    0.00000   0.00000   0.00000
P     0.47277  -1.62660  -1.50658
C     1.87438  -1.27920  -2.66118
H     2.77908  -1.22239  -2.04656
H     1.98626  -2.14241  -3.32524
C     1.70937   0.00009  -3.48051
H     2.46456   0.00008  -4.27344
H     0.72553   0.00010  -3.95826
C    -0.97799  -1.85393  -2.57415
C    -2.20946  -1.63520  -1.95990
H    -2.23030  -1.39339  -0.90190
C    -3.38050  -1.73514  -2.68647
H    -4.33140  -1.56809  -2.20368
C    -3.33047  -2.04475  -4.03599
H    -4.24247  -2.11326  -4.61014
C    -2.10994  -2.27284  -4.64993
H    -2.07248  -2.52341  -5.70017
C    -0.93456  -2.18341  -3.92482
H     0.00910  -2.37574  -4.41457
C     0.92640  -3.27860  -0.91972
C     1.90624  -3.34753   0.06606
H     2.32608  -2.42906   0.45665
C     2.30240  -4.57407   0.56106
H     3.05686  -4.62904   1.33154
C     1.71702  -5.73450   0.07802
H     2.01990  -6.69393   0.47054
C     0.73441  -5.66628  -0.89495
H     0.27075  -6.57130  -1.25940
C     0.33398  -4.43986  -1.39677
H    -0.44319  -4.38278  -2.14617
Cl   -0.59706   1.64519   1.48750
P     0.47292   1.62673  -1.50676
C     1.87466   1.27938  -2.66124
H     2.77933   1.22246  -2.04657
H     1.98659   2.14257  -3.32532
C    -0.97789   1.85406  -2.57428
C    -2.20940   1.63537  -1.96005
H    -2.23029   1.39331  -0.90213
C    -3.38041   1.73535  -2.68666
H    -4.33131   1.56800  -2.20399
C    -3.33033   2.04494  -4.03619
H    -4.24231   2.11345  -4.61038
C    -2.10976   2.27304  -4.65008
H    -2.07225   2.52372  -5.70029
C    -0.93443   2.18362  -3.92493
H     0.00927   2.37607  -4.41457
C     0.92670   3.27876  -0.92005
C     1.90617   3.34770   0.06606
H     2.32611   2.42921   0.45659
C     2.30220   4.57426   0.56118
H     3.05703   4.62925   1.33136
C     1.71693   5.73469   0.07804
H     2.02003   6.69411   0.47046
C     0.73395   5.66647  -0.89466
H     0.27063   6.57152  -1.25907
C     0.33393   4.44006  -1.39683
H    -0.44333   4.38277  -2.14608
O    -0.42890  -1.18202   1.06835
