47

Ni    0.00000   0.00000   0.00000
Br   -1.36900   1.57956  -1.08841
I    -1.00271  -1.12212  -4.03697
I     2.61873   1.46313  -2.16107
N    -0.69497  -1.42999  -0.81923
N     1.79981  -1.02950  -0.42068
C     0.09719  -2.42695  -1.08729
C     1.50023  -2.23124  -0.78637
C     2.47472  -3.35231  -0.93533
H     3.49575  -2.98779  -0.84452
H     2.35047  -3.82598  -1.90736
H     2.30313  -4.10633  -0.16701
C    -0.38111  -3.74552  -1.59821
H    -1.46703  -3.77871  -1.64738
H    -0.03678  -4.53839  -0.93526
H     0.02129  -3.93662  -2.59295
C    -2.05445  -1.48010  -1.17539
C    -3.03730  -1.60541  -0.19573
H    -2.73790  -1.69657   0.83762
C    -4.37467  -1.59632  -0.54055
H    -5.12035  -1.68974   0.23309
C    -4.75156  -1.45699  -1.86506
H    -5.79497  -1.43509  -2.13790
C    -3.78624  -1.33236  -2.84899
H    -4.07289  -1.21177  -3.88192
C    -2.44770  -1.34994  -2.50918
C     3.03733  -0.60589   0.02652
C     3.60074   0.54369  -0.53340
C     4.78203   1.06410  -0.04314
H     5.21052   1.94498  -0.49691
C     5.40164   0.45978   1.03899
H     6.31697   0.87680   1.42973
C     4.84014  -0.66458   1.62281
H     5.31288  -1.12646   2.47588
C     3.67158  -1.20092   1.11943
H     3.20662  -2.05251   1.59362
O     0.93725   1.39675   0.78634
C     0.77138   2.32331   1.56723
C    -0.53222   2.61447   2.21892
H    -1.28294   2.78500   1.44321
H    -0.48079   3.47007   2.88303
H    -0.85957   1.73067   2.77148
C     1.92370   3.22482   1.89040
H     2.83456   2.87906   1.40682
H     2.06914   3.26154   2.96802
H     1.68854   4.23082   1.54603
O    -0.23605  -0.69968   1.47554
