62

Cu    0.00000   0.00000   0.00000
N     1.37320  -0.90528  -0.98886
N     3.30052  -2.36253  -2.44181
N     3.27580  -2.56220   3.06920
H     2.45661  -2.21803   3.54603
N     5.17494  -3.95625   1.63947
H     5.97456  -4.25768   1.10375
C     1.42095  -0.84458  -2.33897
C     0.51980  -0.02989  -3.05209
H    -0.16425   0.59063  -2.48804
C     0.55116   0.00504  -4.41838
H    -0.13567   0.64087  -4.95699
C     1.48349  -0.76748  -5.13445
H     1.48736  -0.72296  -6.21385
C     2.38810  -1.54864  -4.47529
H     3.12777  -2.13341  -4.99940
C     2.39149  -1.60470  -3.06293
C     3.28006  -2.38345  -1.11510
C     2.29468  -1.65388  -0.36030
C     2.30142  -1.75724   1.03837
H     1.54364  -1.22463   1.59616
C     3.24448  -2.50444   1.70115
C     4.25726  -3.19641   0.95253
C     4.24685  -3.13606  -0.41640
H     4.98960  -3.66018  -0.99749
C     4.04023  -3.59334   3.72443
H     3.54361  -4.57293   3.65851
H     4.16177  -3.33111   4.77719
C     5.40208  -3.67674   3.03671
H     5.93568  -2.72559   3.18285
H     5.99689  -4.48400   3.46822
N    -1.37214  -0.90544   0.99013
N    -3.29944  -2.36264   2.44314
N    -3.27482  -2.56186  -3.06788
H    -2.45561  -2.21769  -3.54468
N    -5.17392  -3.95614  -1.63823
H    -5.97355  -4.25755  -1.10251
C    -1.41983  -0.84474   2.34032
C    -0.51895  -0.02976   3.05353
H     0.16522   0.59081   2.48949
C    -0.55048   0.00531   4.41982
H     0.13653   0.64091   4.95847
C    -1.48318  -0.76679   5.13579
H    -1.48644  -0.72299   6.21520
C    -2.38759  -1.54817   4.47661
H    -3.12691  -2.13337   5.00070
C    -2.39038  -1.60489   3.06428
C    -3.27906  -2.38345   1.11642
C    -2.29364  -1.65397   0.36164
C    -2.30032  -1.75722  -1.03700
H    -1.54251  -1.22453  -1.59469
C    -3.24342  -2.50431  -1.69982
C    -4.25619  -3.19638  -0.95126
C    -4.24577  -3.13612   0.41769
H    -4.98851  -3.66029   0.99876
C    -4.03918  -3.59310  -3.72309
H    -3.54257  -4.57269  -3.65713
H    -4.16072  -3.33095  -4.77587
C    -5.40105  -3.67677  -3.03550
H    -5.93463  -2.72563  -3.18170
H    -5.99584  -4.48408  -3.46701
O     0.00024   1.65000   0.00059
