33

Zn    0.00000   0.00000   0.00000
C     2.34902   0.71557   1.95940
H     2.56666  -0.34354   1.96958
C     3.22731   1.63990   2.50874
H     4.15235   1.31099   2.95385
C     2.89059   2.98415   2.46292
H     3.55186   3.73257   2.87291
C     1.69043   3.35151   1.87940
H     1.39184   4.38695   1.82372
C     0.86527   2.35871   1.35133
C    -0.40122   2.68752   0.72359
H    -0.66035   3.74428   0.66367
C    -2.37938   2.05288  -0.34607
C    -3.51967   1.36168   0.10106
C    -4.72821   1.58640  -0.53544
H    -5.61085   1.07009  -0.18893
C    -4.81130   2.45363  -1.61130
H    -5.75774   2.61355  -2.10518
C    -3.67813   3.10363  -2.06191
H    -3.74105   3.76085  -2.91661
C    -2.44760   2.92944  -1.44199
C    -1.23745   3.60291  -2.01626
H    -1.07285   4.57783  -1.55650
H    -1.38216   3.76314  -3.08207
H    -0.34248   2.99719  -1.88289
C    -3.42659   0.44048   1.27434
H    -2.70938  -0.35688   1.07689
H    -4.39356  -0.00732   1.48581
H    -3.08635   0.97363   2.16134
Cl   -0.51560  -1.99441   0.71823
N     1.20668   1.06660   1.39843
N    -1.18074   1.77268   0.30317
O     0.78604   0.52431  -1.35268
