42

Mo    0.00000   0.00000   0.00000
Cl    1.76047   0.60230   1.74152
Cl   -1.16884  -1.75547  -1.40601
P    -0.95852  -1.19307   1.84235
C     0.13017   2.13967  -0.50929
C    -0.64233   1.49329  -1.54106
C    -1.93107   1.18482  -0.99464
C    -1.93932   1.55774   0.36695
C    -0.68138   2.14725   0.68025
C     1.35375   2.98325  -0.69743
C    -0.32901   1.46141  -3.00661
C    -3.09202   0.72530  -1.80938
C    -3.16410   1.64823   1.22777
C    -0.37552   2.96926   1.89053
C    -0.90902  -0.48877   3.52331
C     0.04124  -2.70455   2.05877
C    -2.63944  -1.88815   1.70954
H     1.07055   4.02843  -0.83917
H     1.99150   2.91474   0.18254
H     1.92600   2.65953  -1.56537
H    -0.78073   2.31993  -3.50859
H     0.74627   1.48960  -3.17813
H    -0.72716   0.55157  -3.45420
H    -3.20923   1.37420  -2.67681
H    -2.92013  -0.29119  -2.16606
H    -4.01287   0.73619  -1.23343
H    -3.58018   2.65435   1.13739
H    -3.92397   0.93889   0.91096
H    -2.93818   1.47381   2.27669
H    -0.30582   4.02083   1.60912
H    -1.14611   2.86179   2.64896
H     0.57989   2.66626   2.31749
H    -1.18327  -1.25276   4.25037
H     0.10487  -0.13779   3.70771
H    -1.59208   0.35242   3.60595
H    -0.34859  -3.29078   2.89371
H    -0.00123  -3.29250   1.13854
H     1.07683  -2.41725   2.25645
H    -2.79356  -2.63179   2.49106
H    -3.38268  -1.10165   1.80605
H    -2.73456  -2.35102   0.72844
O     1.23751  -1.02679  -0.36981
