56

Mo    0.00000   0.00000   0.00000
Cl    0.59680  -1.99308  -1.31402
Cl   -2.08556   1.18239   0.56455
P    -0.42084   0.97703  -2.19049
C     1.83339   1.66610   0.00713
C     0.96158   1.87618   1.10701
C     0.92721   0.68166   1.89824
C     1.78892  -0.28657   1.25884
C     2.32565   0.33422   0.07746
C     2.35410   2.75110  -0.88290
C     0.36405   3.18043   1.52872
C     0.37006   0.60178   3.28490
C     2.31258  -1.55057   1.86588
C     3.42599  -0.25770  -0.74442
C    -1.37549   2.53567  -2.29276
C     0.92214   1.21129  -3.39286
C     1.21209   2.43798  -3.98219
C     2.25230   2.54392  -4.88981
C     3.01029   1.43250  -5.21731
C     2.72585   0.20865  -4.63210
C     1.68993   0.09652  -3.72355
C    -1.54676  -0.11915  -3.11610
C    -1.58520  -0.10140  -4.50729
C    -2.46657  -0.92248  -5.18677
C    -3.31699  -1.76202  -4.48640
C    -3.29181  -1.77494  -3.10136
C    -2.41228  -0.95557  -2.41653
H     3.08679   3.33861  -0.32505
H     2.84300   2.34554  -1.76414
H     1.56130   3.42212  -1.20641
H     0.80449   3.49671   2.47525
H     0.54066   3.95412   0.78604
H    -0.71156   3.07717   1.67061
H     1.08081   1.01701   4.00264
H    -0.55987   1.16423   3.35027
H     0.16291  -0.43079   3.55802
H     1.59023  -1.96993   2.56324
H     2.50463  -2.28939   1.08945
H     3.24428  -1.35689   2.40163
H     3.16477  -1.27087  -1.04584
H     3.61165   0.32702  -1.64193
H     4.34352  -0.29882  -0.15500
H    -0.82337   3.34982  -1.82624
H    -1.60454   2.77026  -3.33251
H    -2.29977   2.38788  -1.73509
H     0.63497   3.31718  -3.73921
H     2.47022   3.50010  -5.34305
H     3.81990   1.52073  -5.92650
H     3.31367  -0.66148  -4.88361
H     1.46652  -0.85316  -3.25875
H    -0.91601   0.54629  -5.05723
H    -2.48629  -0.90973  -6.26672
H    -3.99857  -2.40772  -5.01980
H    -3.95400  -2.42768  -2.55230
H    -2.39823  -0.97138  -1.32499
O    -0.82227  -1.18479   0.80165
