53

Ir    0.00000   0.00000   0.00000
P    -1.14056  -1.10751   1.68648
P    -1.97270   0.51761  -1.30013
P     1.49372   0.95051  -1.49248
C     1.70545  -0.68249   0.97387
C     2.24531  -1.91703   0.61587
C     3.38153  -2.42350   1.22652
C     4.01901  -1.70577   2.22164
C     3.50438  -0.47705   2.59523
C     2.36844   0.02297   1.98066
C    -1.83137  -2.76170   1.32124
C    -0.21019  -1.51351   3.21360
C    -2.56509  -0.24135   2.46634
C    -1.83544   0.58474  -3.13105
C    -3.40583  -0.63015  -1.23683
C    -2.84932   2.11492  -1.00240
C     3.22390   1.17927  -0.92985
C     1.81478   0.07555  -3.06667
C     1.16687   2.67387  -2.05008
H     0.01413   1.28553   0.84289
H     1.77784  -2.50967  -0.15710
H     3.76826  -3.38647   0.91993
H     4.90537  -2.09860   2.69991
H     3.99035   0.09828   3.37211
H     1.99378   0.98654   2.29719
H    -2.30317  -3.18184   2.20949
H    -2.54847  -2.70660   0.50721
H    -1.00753  -3.39756   1.00116
H    -0.87777  -1.97484   3.94124
H     0.60281  -2.19539   2.97480
H     0.21542  -0.60217   3.62662
H    -3.04938  -0.88466   3.20018
H    -2.18026   0.64993   2.95821
H    -3.29039   0.06797   1.71843
H    -2.81151   0.80070  -3.56686
H    -1.12598   1.34722  -3.44480
H    -1.49202  -0.38888  -3.47552
H    -4.19630  -0.27070  -1.89658
H    -3.06614  -1.60670  -1.57668
H    -3.79515  -0.71728  -0.22487
H    -3.71719   2.22517  -1.65168
H    -3.16520   2.15797   0.03803
H    -2.15815   2.93732  -1.17578
H     3.79900   1.69018  -1.70197
H     3.22785   1.76679  -0.01492
H     3.67002   0.21021  -0.71824
H     2.55874   0.61179  -3.65577
H     2.18198  -0.91927  -2.81959
H     0.89685  -0.03783  -3.63632
H     1.90633   2.98432  -2.78745
H     0.17019   2.76479  -2.47364
H     1.22732   3.32019  -1.17655
O    -0.20415  -1.29356  -1.00375
