65

Ni    0.00000   0.00000   0.00000
O     1.28037   0.83803   3.71107
O    -0.18914   0.59052  -3.96544
N     0.27829   0.18554   1.84685
N     1.10569   1.45707  -0.25967
N    -0.21360  -0.10244  -1.86201
C    -0.79047   0.13606   2.83435
H    -1.20358  -0.87599   2.86672
C    -0.04731   0.51935   4.13439
H    -0.47775   1.39491   4.62706
H     0.00785  -0.30731   4.84758
C     1.34784   0.61256   2.39797
C     2.60862   0.88520   1.63299
C     2.19734   1.77790   0.48364
C     2.76579   2.93288  -0.00949
H     3.63907   3.43387   0.36101
C     1.98430   3.32912  -1.10841
H     2.14635   4.19330  -1.72306
C     0.97257   2.40066  -1.22878
C    -0.18245   2.31543  -2.20141
C    -0.20649   0.88965  -2.66556
C    -0.17737  -0.83462  -4.07857
H     0.69374  -1.13211  -4.66791
H    -1.08830  -1.14642  -4.59613
C    -0.11751  -1.34200  -2.61987
H    -0.96258  -1.98667  -2.36241
C     1.17621  -2.01805  -2.22987
C     1.16058  -3.20653  -1.51246
H     0.21616  -3.65853  -1.25126
C     2.34910  -3.79657  -1.11845
H     2.32939  -4.71976  -0.55844
C     3.55936  -3.20466  -1.43649
H     4.48603  -3.66680  -1.12952
C     3.57974  -2.01231  -2.14054
H     4.52103  -1.54007  -2.38058
C     2.39409  -1.41703  -2.53075
H     2.41833  -0.47385  -3.05868
C    -1.86142   1.11035   2.40225
C    -1.57942   2.47128   2.34358
H    -0.59971   2.83482   2.62079
C    -2.54353   3.36447   1.91344
H    -2.31670   4.41969   1.87287
C    -3.79211   2.90601   1.52779
H    -4.54319   3.60438   1.18918
C    -4.07117   1.55079   1.56785
H    -5.03981   1.18896   1.25635
C    -3.11013   0.65441   2.00254
H    -3.32108  -0.40371   2.01917
C     3.66492   1.53307   2.52229
H     3.89089   0.89108   3.37050
H     3.31264   2.49087   2.89625
H     4.57427   1.69374   1.94997
C     3.11248  -0.45874   1.07282
H     3.39699  -1.13284   1.87855
H     3.97186  -0.28691   0.43010
H     2.31947  -0.92854   0.47963
C    -1.49834   2.58214  -1.44562
H    -1.47334   3.57745  -1.00986
H    -1.61250   1.84897  -0.63859
H    -2.35297   2.50568  -2.11514
C    -0.02607   3.27635  -3.37547
H    -0.84073   3.14393  -4.08362
H     0.91408   3.09832  -3.89092
H    -0.03793   4.30021  -3.01233
O    -0.98849  -1.30056   0.23223
