36

C     1.19605  -2.13361   2.53727
C     1.24974  -3.16594   3.47363
H     1.98634  -3.15642   4.26106
C     0.32098  -4.18945   3.40221
H     0.34163  -4.99486   4.12139
C    -0.63252  -4.15837   2.39895
H    -1.37294  -4.93551   2.30149
C    -0.62025  -3.08787   1.51753
H    -1.35430  -3.01878   0.72524
C     2.14269  -1.01061   2.57702
C     3.48793  -1.18867   3.22229
H     4.25727  -0.68738   2.63390
H     3.74977  -2.24038   3.27836
H     3.49238  -0.76929   4.22967
C     2.01805   2.28871   1.31634
C     2.86931   3.47924   1.35868
C     3.79085   3.74559   2.37531
H     3.89553   3.07830   3.21927
C     4.54673   4.89397   2.35043
H     5.24708   5.09808   3.14737
C     4.41947   5.81523   1.30211
C     3.48824   5.55193   0.28893
H     3.37560   6.25739  -0.52068
C     2.72508   4.41205   0.32520
H     2.00351   4.20844  -0.45074
N     2.46211   1.20198   2.03873
H     3.39366   1.21714   2.44459
N     1.73435   0.07813   2.04499
N     0.26140  -2.10550   1.58092
N     5.21174   6.91976   1.24875
H     4.99096   7.64464   0.58908
H     5.74462   7.18108   2.05932
O     0.98129   2.23455   0.67305
I     2.01866  -0.57211  -1.57654
Hg    0.00000   0.00000   0.00000
O    -1.58111   0.22243   0.41609
