50

Zr    0.00000   0.00000   0.00000
C    -1.57049   0.21328   1.60954
C    -0.80006  -0.49324   2.61568
C    -1.22622  -1.79732   2.71035
C    -2.31369  -1.98925   1.80771
C    -2.55569  -0.74758   1.14598
C    -3.62495  -0.62952   0.25296
C    -4.40534  -1.73957   0.00493
C    -4.14579  -2.96441   0.62840
C    -3.11173  -3.10003   1.52846
C     1.93594   0.87169   1.42329
C     2.37001   0.81686   0.08202
C     1.61412   1.71565  -0.70214
C     0.76607   2.44400   0.18884
C     0.98250   1.93116   1.52048
C     0.37055   2.56959   2.61613
C    -0.46654   3.63304   2.38574
C    -0.71702   4.09821   1.08320
C    -0.10891   3.52878  -0.00773
C     1.54262  -1.98913  -0.34960
C     0.28673  -2.46317   0.07966
C    -0.69162  -2.17413  -0.90323
C    -0.01668  -1.57802  -2.01150
C     1.37909  -1.45708  -1.66565
C     2.28362  -0.94705  -2.61806
C     1.81152  -0.56428  -3.84904
C     0.45020  -0.67743  -4.18028
C    -0.46104  -1.18089  -3.28689
H    -1.81504   1.27681   1.68313
H    -0.08827  -0.03471   3.29093
H    -0.83435  -2.54864   3.37563
H    -3.84176   0.31781  -0.22285
H    -5.23943  -1.66545  -0.67740
H    -4.77791  -3.81182   0.40551
H    -2.92581  -4.04484   2.01941
H     2.42485   0.38535   2.25901
H     3.23598   0.26590  -0.26291
H     1.77923   1.94997  -1.74840
H     0.58224   2.24808   3.62733
H    -0.93270   4.13754   3.21890
H    -1.38066   4.93905   0.94948
H    -0.27145   3.92002  -1.00250
H     2.48674  -2.19543   0.13973
H     0.12531  -3.07616   0.95768
H    -1.70988  -2.54176  -0.91805
H     3.34276  -0.89573  -2.39842
H     2.49861  -0.18279  -4.58999
H     0.12703  -0.37473  -5.16469
H    -1.50341  -1.28993  -3.55296
O    -1.01482   0.77549  -1.04464
