23

Hg    0.00000   0.00000   0.00000
Br   -2.10228  -1.43131  -0.04429
S     0.13079   1.20894  -2.46581
N     1.44978  -1.08163  -3.22325
H     1.85069  -1.30717  -2.31222
N     0.34122  -0.08767  -4.79285
H    -0.25001   0.58393  -5.25488
C     0.65190  -0.02809  -3.47874
C     1.62840  -1.80689  -4.37230
H     2.22375  -2.69518  -4.38681
C     0.93938  -1.18739  -5.35634
H     0.82488  -1.43118  -6.39130
S    -0.13189   1.20866   2.46665
C    -0.65283  -0.02811   3.47997
N    -1.45062  -1.08175   3.22460
H    -1.85167  -1.30730   2.31363
C    -1.62898  -1.80702   4.37368
H    -2.22414  -2.69540   4.38817
C    -0.93994  -1.18739   5.35763
N    -0.34203  -0.08757   4.79408
H     0.24916   0.58408   5.25611
H    -0.82533  -1.43121   6.39259
O     1.36318  -0.92918   0.02966
