36

Ir    0.00000   0.00000   0.00000
N    -1.62179   0.20840  -1.20637
C    -2.79006  -0.32065  -0.82803
H    -2.76278  -0.98827   0.02255
C    -3.98644  -0.04507  -1.45811
H    -4.89932  -0.49590  -1.10345
C    -3.98284   0.81896  -2.54255
H    -4.89605   1.06004  -3.06446
C    -2.77589   1.37205  -2.93306
H    -2.73087   2.05716  -3.76543
C    -1.61087   1.05988  -2.24503
C    -0.30689   1.68365  -2.61421
H     0.00865   2.33730  -1.80047
H    -0.39623   2.26896  -3.52510
H     0.46168   0.92436  -2.74364
C     1.97612   0.29022   0.73329
H     2.12481   1.34924   0.93639
C     1.26114  -0.45074   1.67424
H     0.87500   0.08577   2.53806
C     1.48035  -1.93453   1.89420
H     1.31726  -2.16759   2.94740
H     2.51897  -2.17729   1.66680
C     0.52849  -2.79226   1.03989
H     0.99937  -3.75028   0.79413
H    -0.36740  -3.01497   1.62257
C     0.09264  -2.10075  -0.23363
H    -0.83172  -2.51171  -0.63981
C     0.97570  -1.50587  -1.15168
H     0.65213  -1.48884  -2.19085
C     2.48208  -1.53048  -0.97550
H     2.95728  -1.56375  -1.95760
H     2.76350  -2.44523  -0.45242
C     3.00101  -0.29547  -0.21351
H     3.90704  -0.54963   0.34584
H     3.27380   0.47845  -0.93318
O    -0.47471   1.45222   0.62306
