54

Rh    0.00000   0.00000   0.00000
Cl    0.13506  -1.16329   1.99281
N     1.92270  -1.36869  -0.50657
H     1.75882  -1.74273   0.43830
H     2.14637  -2.12994  -1.14243
N     1.40463   1.16325   0.48915
N     1.17663   2.26578   1.06250
C    -1.04606   1.46309   0.85411
N    -1.53672  -1.41517  -0.76073
H    -1.83603  -0.93383  -1.62146
H    -0.97355  -2.23959  -0.97401
N    -3.81566  -0.29506  -1.49746
N    -4.82347   0.42257  -1.77792
C    -5.89091   1.69982  -3.45829
H    -6.82829   1.29500  -3.10782
C     2.95096  -0.39703  -0.49399
C     4.19813  -0.64031  -1.05359
H     4.38549  -1.58975  -1.53578
C     5.19569   0.31664  -0.99653
H     6.15947   0.10940  -1.43570
C     4.96355   1.53301  -0.36989
H     5.74786   2.27179  -0.31694
C     3.72204   1.80951   0.16246
H     3.50119   2.76109   0.61971
C     2.69951   0.86096   0.08820
C    -0.14981   2.46722   1.30046
C    -0.61797   3.61123   1.95403
H     0.09223   4.35289   2.28414
C    -1.97125   3.75263   2.16422
H    -2.35225   4.62953   2.66602
C    -2.85221   2.76456   1.73830
H    -3.91236   2.88277   1.90890
C    -2.39566   1.62253   1.09425
H    -3.10729   0.87101   0.78700
C    -2.69933  -1.75601  -0.03603
C    -2.68821  -2.66701   1.00965
H    -1.76390  -3.15121   1.28563
C    -3.85134  -2.92192   1.71406
H    -3.83305  -3.62549   2.53247
C    -5.03946  -2.28391   1.37721
H    -5.93920  -2.49389   1.93590
C    -5.07172  -1.38915   0.33018
H    -5.98237  -0.88984   0.03604
C    -3.90488  -1.11788  -0.39247
C    -4.70338   1.27415  -2.85149
C    -3.47644   1.78780  -3.29282
H    -2.56744   1.48706  -2.79339
C    -5.84565   2.59303  -4.50747
H    -6.76150   2.90807  -4.98606
C    -4.62740   3.09503  -4.94446
H    -4.59865   3.80309  -5.75971
C    -3.44951   2.69656  -4.32955
H    -2.50265   3.09577  -4.66173
O    -0.07025   0.66419  -1.50878
