35

Fe    0.00000   0.00000   0.00000
Cl    1.11639   1.64544   0.93968
N     1.48784  -1.30848   0.73821
H     2.17094  -0.64679   1.11447
H     1.29508  -1.99899   1.45867
C    -2.12174   0.94465   1.54762
N    -1.23030  -0.05840   1.47138
C    -3.06956   1.02645   2.55142
H    -3.75822   1.85731   2.56846
C    -3.12232   0.03804   3.52289
H    -3.84841   0.08212   4.31924
C    -2.22595  -1.01555   3.42457
H    -2.23668  -1.82417   4.13792
C    -1.31168  -1.02182   2.39068
H    -0.62533  -1.84520   2.27358
C     2.01241  -1.96943  -0.45686
H     1.27308  -2.71618  -0.76765
H     2.97807  -2.46407  -0.28507
N    -1.48784   1.30900  -0.73818
H    -2.17115   0.64654  -1.11362
H    -1.29560   1.99939  -1.45943
C     2.12224  -0.94324  -1.54726
N     1.23080   0.05975  -1.47085
C     3.06998  -1.02484  -2.55112
H     3.75883  -1.85554  -2.56819
C     3.12258  -0.03634  -3.52248
H     3.84878  -0.08018  -4.31874
C     2.22600   1.01704  -3.42414
H     2.23661   1.82570  -4.13744
C     1.31183   1.02316  -2.39017
H     0.62516   1.84628  -2.27312
C    -2.01182   1.97050   0.45694
H    -1.27227   2.71712   0.76749
H    -2.97743   2.46533   0.28533
O    -0.83972  -1.23288  -0.70524
