64

Cd    0.00000   0.00000   0.00000
B    -2.99316   0.00000   0.75440
N    -1.01587  -1.53731   1.18067
N    -2.31739  -1.25422   1.33227
N    -1.67063   0.00001  -1.41504
N    -2.84911   0.00001  -0.77599
C    -2.90253  -2.21629   2.05591
C    -1.95027  -3.15585   2.38618
C    -0.76457  -2.68524   1.81017
C     0.61288  -3.29243   1.84048
C     1.06953  -3.57887   0.40369
C     0.59908  -4.60059   2.63641
C     1.58211  -2.30560   2.50541
C    -3.84342   0.00001  -1.67207
C    -3.29377   0.00001  -2.93556
C    -1.90975   0.00001  -2.72659
C    -0.79654   0.00002  -3.74033
C     0.06405  -1.25515  -3.54277
C    -1.37131   0.00003  -5.15976
H    -4.14200   0.00001   1.04392
H    -3.94682  -2.17966   2.29205
H    -2.09881  -4.04690   2.95923
H     1.14011  -2.65308  -0.17000
H     2.04983  -4.04992   0.41247
H     0.36775  -4.24713  -0.09274
H    -0.07613  -5.32206   2.18231
H     1.59755  -5.03142   2.65330
H     0.28591  -4.42491   3.66291
H     1.65832  -1.38755   1.92024
H     1.24171  -2.05543   3.50897
H     2.57309  -2.74827   2.57576
H    -4.87006   0.00001  -1.36604
H    -3.82201   0.00002  -3.86580
H     0.53213  -1.25022  -2.55686
H    -0.54471  -2.15284  -3.63815
H     0.85050  -1.28829  -4.29334
H    -0.56071   0.00003  -5.88486
H    -1.98101  -0.88430  -5.32975
N    -1.01586   1.53731   1.18067
N    -2.31739   1.25423   1.33227
C     0.06405   1.25519  -3.54276
H    -1.98101   0.88435  -5.32974
C    -0.76456   2.68524   1.81017
C    -2.90252   2.21629   2.05592
H     0.53213   1.25025  -2.55684
H    -0.54471   2.15288  -3.63812
H     0.85050   1.28834  -4.29333
C    -1.95026   3.15586   2.38619
C     0.61289   3.29243   1.84047
H    -3.94681   2.17967   2.29206
H    -2.09880   4.04690   2.95923
C     1.06953   3.57887   0.40369
C     0.59910   4.60059   2.63641
C     1.58212   2.30560   2.50541
H     1.14012   2.65307  -0.17000
H     2.04984   4.04991   0.41246
H     0.36775   4.24712  -0.09275
H    -0.07612   5.32205   2.18231
H     1.59757   5.03142   2.65329
H     0.28592   4.42491   3.66290
H     1.65832   1.38755   1.92023
H     1.24172   2.05543   3.50897
H     2.57310   2.74826   2.57575
O     1.59950  -0.00000  -0.40511
