45

Mn    0.00000   0.00000   0.00000
C     1.46402   0.13763  -1.01210
O     2.34775   0.39618  -1.70300
N    -1.60061  -0.11191   1.27329
C    -0.81913   0.82583  -1.34677
O    -1.26514   1.36998  -2.25658
N    -2.40926  -0.66346   3.26792
H    -2.44820  -1.03100   4.20345
C     0.49727   1.55247   0.69321
O     0.85253   2.57004   1.09497
N     0.86938  -1.04276   1.72879
C    -2.94592   0.14668   1.27000
N     4.30996  -1.49208   0.88452
C    -3.78040   0.64851   0.27403
H    -3.38972   0.90948  -0.69627
N     2.63323  -2.25087  -0.38554
H     1.70480  -2.57051  -0.64184
C    -5.62801   0.44100   1.83211
H    -6.68306   0.56744   2.02023
C    -5.11662   0.78623   0.57700
H    -5.79153   1.16863  -0.17289
C    -3.47329  -0.20392   2.53395
C    -4.81983  -0.05975   2.83123
H    -5.21383  -0.33090   3.79836
C     3.76461  -2.36619  -1.13912
C     3.98984  -2.83596  -2.42470
H     3.18035  -3.20807  -3.03314
C     5.28842  -2.78973  -2.88273
H     5.51054  -3.13784  -3.88041
C     6.33301  -2.29686  -2.09044
H     7.33163  -2.28161  -2.50151
C     6.12009  -1.83201  -0.81305
H     6.92177  -1.44893  -0.20255
C     4.81485  -1.86872  -0.32556
C     3.01896  -1.71138   0.81266
C     2.11905  -1.48086   1.93039
C     2.60689  -1.76459   3.21078
H     3.63985  -2.05559   3.30397
C     1.76280  -1.67899   4.29869
H     2.11703  -1.89629   5.29433
C     0.43884  -1.33410   4.08116
H    -0.26330  -1.28872   4.89866
C     0.03655  -1.00875   2.78921
C    -1.31089  -0.59793   2.46650
O    -0.47368  -1.47268  -0.57389
