40

Pt    0.00000   0.00000   0.00000
S     0.78739  -2.07867   0.07936
O    -0.70073   1.88512  -0.15372
C     2.08542   2.24848  -5.46617
H     3.07213   2.04428  -5.84626
C    -0.14357   3.09587  -5.71317
H    -0.92280   3.56470  -6.29017
N     0.58025   0.42176  -1.85426
H     1.01243  -0.18895  -2.53295
N    -0.40280   2.39576  -1.39353
N     1.41793   3.28713  -7.54653
C     2.72770   3.06058  -8.10544
H     3.49874   3.48660  -7.45943
H     2.79704   3.55001  -9.07395
H     2.93516   1.99318  -8.24294
C     0.53214   2.09565  -3.62433
C     1.78828   1.85873  -4.17995
H     2.54840   1.37445  -3.58441
C     0.23535   1.63057  -2.26234
C     1.12730   2.88392  -6.27392
C    -0.42899   2.71439  -4.42135
H    -1.42375   2.87323  -4.03389
O     1.45613  -2.53700  -1.13197
C     1.91739  -2.37800   1.47243
H     2.79277  -1.75348   1.33037
H     2.19996  -3.42408   1.47585
H     1.39051  -2.09432   2.37629
C    -0.47893  -3.31308   0.50334
H    -0.92790  -3.00029   1.43908
H    -0.00816  -4.28590   0.58188
H    -1.21786  -3.31737  -0.29078
C     0.37059   3.76974  -8.41343
H     0.77113   3.93359  -9.41055
H    -0.03418   4.71918  -8.05012
H    -0.44783   3.04713  -8.49044
C    -0.69392   3.79955  -1.50314
H    -1.76172   3.95807  -1.67264
H    -0.11891   4.24135  -2.31400
H    -0.42626   4.26934  -0.55525
O    -0.50408  -0.27306   1.54721
