54

Mn    0.00000   0.00000   0.00000
O    -0.47033   0.65108  -1.68461
O    -3.37496   0.96650   2.11813
O    -1.89595   2.89380  -0.53156
O    -3.14537   1.97050  -2.15077
N    -1.76727   0.36697   0.68549
C     0.07886   0.49297  -2.84931
C     1.49256   0.36735  -3.01285
C     2.05921   0.33050  -4.29096
C     1.25914   0.35776  -5.40723
C    -0.12745   0.43432  -5.26291
C    -0.70743   0.51242  -4.02147
C    -2.10515   0.56118   1.92139
C    -2.89049   0.71943  -0.16379
C    -4.01309   1.02790   0.85263
C    -2.54099   1.97772  -0.96475
C    -2.92487   3.11584  -2.96755
H     3.13302   0.25875  -4.37454
H     1.69712   0.30950  -6.39191
H    -0.75411   0.43314  -6.14269
H    -1.77916   0.56232  -3.90603
H    -3.13197  -0.09748  -0.85109
H    -4.43787   2.02753   0.72373
H    -4.81404   0.28310   0.82451
H    -3.52524   2.97069  -3.86177
H    -1.86696   3.19505  -3.22479
H    -3.23138   4.02135  -2.43993
O     0.55418  -0.46012   1.72127
O     3.56718   0.83597  -1.87147
O     1.01916   1.99711   0.87001
O     3.02840   2.43549   1.74867
N     1.84984   0.08510  -0.64436
C     0.06218  -0.15103   2.87713
C    -1.25891   0.35384   3.05999
C    -1.72597   0.64579   4.34750
C    -0.91925   0.47463   5.44647
C     0.37937  -0.00900   5.28118
C     0.85869  -0.31869   4.03341
C     2.29245   0.38818  -1.82715
C     2.83458   0.52535   0.32455
C     4.06501   0.85843  -0.54143
C     2.19218   1.73164   1.01347
C     2.46823   3.54743   2.44987
H    -2.73437   1.01562   4.45194
H    -1.28639   0.70907   6.43353
H     1.01364  -0.14516   6.14518
H     1.85931  -0.70471   3.90131
H     3.02356  -0.24604   1.07831
H     4.48139   1.84668  -0.33167
H     4.85059   0.10266  -0.44421
H     3.30008   4.03252   2.95325
H     1.72990   3.19748   3.17375
H     1.98398   4.23145   1.75104
O    -0.37833  -1.54919  -0.42353
