42

Pt    0.00000   0.00000   0.00000
S     1.57023   1.25277  -1.16299
N    -1.31798  -1.04588   1.13018
N     0.27685   0.03059   4.15016
C    -2.32525  -1.78747   0.67698
C    -3.18425  -2.46822   1.52136
C    -2.99389  -2.37822   2.89425
C    -1.94904  -1.60942   3.36815
C    -1.12240  -0.95105   2.46288
C     0.00559  -0.11790   2.85560
C     0.72758   0.47067   1.80364
C     1.80575   1.26088   2.19719
C     2.09542   1.41837   3.54144
C     1.30203   0.78422   4.50178
C     1.58028   0.93064   5.98607
C     0.54764   0.14252   6.79344
C     1.49777   2.41223   6.37326
C     2.98113   0.38773   6.29396
C     0.53663   2.25775  -2.26789
C     2.22040   0.06566  -2.37414
H    -2.45050  -1.83986  -0.39665
H    -3.98647  -3.05691   1.10635
H    -3.64984  -2.89902   3.57545
H    -1.74092  -1.49355   4.41927
H     2.42284   1.75595   1.45868
H     2.93279   2.03059   3.84119
H     0.58568  -0.90976   6.52689
H     0.74742   0.24532   7.85773
H    -0.45293   0.51031   6.58477
H     2.24805   2.99976   5.85023
H     0.51638   2.81163   6.12676
H     1.65893   2.52676   7.44311
H     3.74690   0.94643   5.76178
H     3.18275   0.46171   7.36055
H     3.05278  -0.65724   6.00024
H     0.01218   2.98150  -1.65007
H     1.18409   2.76935  -2.97535
H    -0.17418   1.61194  -2.77800
H     2.81747  -0.65905  -1.82756
H     1.38956  -0.42858  -2.87206
H     2.84290   0.60384  -3.08425
O    -0.68617  -0.46263  -1.42746
