43

Br   -0.80797  -2.23847  -0.14245
C     1.57889   1.36721   2.21301
H     0.55692   1.60757   2.49597
H     1.91442   2.14368   1.52958
H     2.19730   1.38425   3.11460
C     1.36364  -1.00625   2.54013
H     2.17419  -1.03674   3.28071
H     1.35467  -1.95976   2.00566
C     0.03777  -0.85082   3.27302
H     0.06774  -0.04558   4.00190
H    -0.18551  -1.77716   3.79577
H    -0.77817  -0.65938   2.57556
C     2.90120  -0.18876   0.85218
H     2.96235  -1.27250   0.69960
C     4.12507   0.24673   1.67290
H     4.08955   1.32238   1.84889
H     4.11130  -0.25846   2.64030
C     5.43187  -0.06351   0.95501
H     6.27118   0.24644   1.57948
H     5.52180  -1.13792   0.78059
C     5.45488   0.67789  -0.37364
H     6.38725   0.47973  -0.90447
H     5.39074   1.75389  -0.19794
C     4.28027   0.21169  -1.22362
H     4.39834  -0.85866  -1.39639
H     4.30533   0.71864  -2.18974
C     2.93158   0.48297  -0.53894
H     2.83512   1.56459  -0.38871
C     1.95402  -1.24211  -1.98480
H     2.66342  -1.20531  -2.81609
H     1.00259  -1.60681  -2.36414
H     2.30150  -1.95972  -1.24534
C     1.51111   1.08126  -2.41392
H     2.38066   1.17086  -3.07873
H     1.35951   2.04435  -1.91978
C     0.28201   0.77204  -3.25839
H     0.45502  -0.05532  -3.94112
H     0.02774   1.65149  -3.84425
H    -0.57741   0.53226  -2.63144
N     1.61555   0.05831   1.55106
N     1.76955   0.07565  -1.36686
Zn    0.00000   0.00000   0.00000
O    -0.67216   1.50672   0.02220
