45

C    -2.48368   1.09461  -1.35652
C    -3.12382   1.89239  -2.51321
C    -2.23068   2.05237  -3.74370
H    -2.80418   2.53311  -4.53429
H    -1.89496   1.08627  -4.11744
H    -1.36815   2.68493  -3.53792
C    -4.41383   1.16937  -2.90923
H    -5.01913   0.98402  -2.02601
H    -4.18481   0.21415  -3.37744
H    -4.98538   1.77472  -3.60901
C    -3.45210   3.26970  -1.92358
H    -4.10518   3.15790  -1.06192
H    -3.95139   3.88754  -2.66691
H    -2.54342   3.77487  -1.60128
C     2.84910   0.63864  -0.84410
C     3.81267   1.50329  -1.68584
C     4.32160   2.59083  -0.73158
H     5.02171   3.24421  -1.24783
H     4.82730   2.13565   0.11618
H     3.49468   3.19102  -0.35631
C     4.97166   0.60914  -2.13153
H     4.62450  -0.12835  -2.85186
H     5.38382   0.08289  -1.27514
H     5.75485   1.20803  -2.59064
C     3.16427   2.14537  -2.91333
H     3.94136   2.59463  -3.52887
H     2.47049   2.93900  -2.63892
H     2.64655   1.40179  -3.51666
Cl    0.09040  -1.95048  -1.32331
H    -0.72116   1.16830  -2.24947
H     1.31157   1.60263  -1.62175
N    -1.18404   0.87930  -1.39681
N     1.55596   0.84895  -0.99131
N     1.28083  -0.93534   1.41272
H     2.21903  -0.75858   0.94860
H     1.15632  -1.94060   1.50385
H     1.28694  -0.49447   2.32970
N    -1.66782  -0.82260   1.02770
H    -2.44548  -0.25727   0.57837
H    -1.69076  -0.65308   2.03002
H    -1.82843  -1.80822   0.83237
O    -3.21444   0.72618  -0.42926
O     3.33062  -0.17490  -0.04735
Pt    0.00000   0.00000   0.00000
O    -0.07042   1.32880   0.97562
