60

C     1.52764  -0.27272   2.51655
C     2.87697  -0.65516   3.15768
C     3.09881  -2.12504   2.77765
H     3.08510  -2.25080   1.69679
H     2.31173  -2.74400   3.20153
H     4.05780  -2.46794   3.16128
C     2.76076  -0.51031   4.67510
H     3.64599  -0.91509   5.16043
H     1.88440  -1.04264   5.03394
H     2.65731   0.53758   4.94785
C     4.03827   0.20265   2.64800
H     4.90930   0.03935   3.27991
H     3.78405   1.25995   2.68197
H     4.31963  -0.06007   1.63036
C     2.28154  -1.17940  -1.51985
C     3.32490  -1.13482  -2.65710
C     3.36642  -2.53516  -3.27604
H     2.43388  -2.74940  -3.79467
H     3.50285  -3.27699  -2.49352
H     4.18725  -2.61316  -3.98589
C     4.66774  -0.82286  -1.98612
H     4.85901  -1.54294  -1.19418
H     4.65580   0.17673  -1.55423
H     5.47587  -0.87687  -2.71254
C     3.03817  -0.09762  -3.74135
H     2.07942  -0.28274  -4.22287
H     3.81191  -0.15944  -4.50498
H     3.05104   0.91455  -3.34013
C    -2.94243   0.13999  -0.36656
H    -3.01785   1.23306  -0.43184
C    -2.65320  -0.24565   1.09653
H    -2.49421  -1.32941   1.15073
C    -3.82210   0.16042   1.99521
H    -3.61022  -0.13862   3.02249
H    -3.93213   1.24781   1.97388
C    -5.11501  -0.49023   1.51142
H    -5.02180  -1.57564   1.57952
H    -5.94316  -0.18418   2.15162
C    -5.40372  -0.09323   0.06683
H    -5.54726   0.98762   0.00742
H    -6.32268  -0.57149  -0.27438
C    -4.24675  -0.50220  -0.84198
H    -4.13684  -1.58942  -0.81984
H    -4.45751  -0.20208  -1.87112
N     1.57194   0.08011   1.24311
H     2.47634  -0.00755   0.79698
N     1.27408  -0.31903  -1.53855
H     1.30036   0.40535  -2.24592
N    -1.79262  -0.27012  -1.18576
H    -1.82106   0.16302  -2.10639
H    -1.79085  -1.28888  -1.29080
N    -1.40201   0.39045   1.48631
H    -0.94336   0.00899   2.35031
H    -1.51718   1.39937   1.59742
O    -0.23966  -1.96519   0.35128
H     0.63806  -2.34790   0.22780
O     0.48982  -0.31818   3.18390
O     2.41362  -2.01578  -0.62581
Pt    0.00000   0.00000   0.00000
O     0.00579   1.61335  -0.34578
