64

Pt    0.00000   0.00000   0.00000
Cl   -1.65051  -1.41302   0.73744
P    -0.97199   1.70151   1.10964
P     1.63130   1.45858  -0.59739
O     1.32753   2.56503   2.24868
C     0.34499   2.99311   1.31490
C     1.22600   3.17176   0.05928
H     0.72278   3.74985  -0.71738
C     2.43629   3.89290   0.67394
H     3.38166   3.42716   0.40185
H     2.47447   4.94420   0.39242
C     2.14027   3.72378   2.18099
H     3.01636   3.60538   2.81551
C     1.16343   4.83752   2.59052
H     1.50684   5.82523   2.29318
H     1.00894   4.82803   3.66874
C    -0.09948   4.37691   1.84186
H    -0.95016   4.27622   2.51507
H    -0.37776   5.04103   1.02536
C    -2.08749   2.59197  -0.01755
C    -1.96418   2.32370  -1.37844
H    -1.25965   1.56085  -1.70783
C    -2.74817   2.99705  -2.29695
H    -2.64839   2.78167  -3.35032
C    -3.66793   3.93744  -1.86081
H    -4.28554   4.46123  -2.57507
C    -3.80696   4.19596  -0.50639
H    -4.53394   4.91898  -0.16661
C    -3.02121   3.52813   0.41595
H    -3.14282   3.72212   1.47230
C    -1.85490   1.59330   2.67844
C    -3.17063   1.13352   2.63481
H    -3.62512   0.91627   1.67826
C    -3.87158   0.94305   3.80989
H    -4.89003   0.58605   3.77637
C    -3.26387   1.19869   5.02947
H    -3.81335   1.04836   5.94701
C    -1.94738   1.62813   5.07454
H    -1.47073   1.80708   6.02742
C    -1.23399   1.81550   3.90399
H    -0.19809   2.11892   3.93374
C     2.07312   1.68951  -2.33856
C     1.56963   2.71387  -3.13465
H     0.93733   3.48290  -2.71450
C     1.86768   2.75356  -4.48540
H     1.47921   3.55699  -5.09436
C     2.64844   1.76395  -5.05784
H     2.87259   1.79670  -6.11368
C     3.12630   0.72368  -4.27640
H     3.71624  -0.06224  -4.72311
C     2.83946   0.68173  -2.92597
H     3.18309  -0.14291  -2.31854
C     3.17825   0.95168   0.19847
C     3.06694   0.10546   1.29740
H     2.07793  -0.21332   1.62103
C     4.20237  -0.33225   1.95271
H     4.11417  -0.99418   2.80096
C     5.45334   0.07013   1.51204
H     6.34200  -0.27546   2.01936
C     5.56927   0.90452   0.41157
H     6.54571   1.20754   0.06222
C     4.43693   1.34633  -0.24905
H     4.52988   1.98005  -1.12184
O     0.73525  -1.15873  -0.91611
