69

Ti    0.00000   0.00000   0.00000
Cl   -0.99518   0.20199   2.01208
Si    2.89096   1.83939   1.57409
Si    3.66998  -1.78544   0.29345
C     1.47960   1.68404   0.33344
C     1.55688   1.37301  -1.06958
C     0.32507   1.71717  -1.67322
C    -0.49106   2.33202  -0.68220
C     0.21743   2.33437   0.53293
C     2.84552   1.20056  -1.81145
H     2.68056   0.93395  -2.85222
H     3.48227   0.45955  -1.34322
H     3.37619   2.15618  -1.79687
C    -0.03900   1.63673  -3.12615
H    -0.14711   2.64178  -3.53890
H    -0.99096   1.11695  -3.25202
H     0.72215   1.11443  -3.70220
C    -1.80648   3.00932  -0.90756
H    -1.66845   4.09324  -0.89074
H    -2.51666   2.74704  -0.12251
H    -2.23537   2.72624  -1.86551
C    -0.22711   3.11521   1.72949
H    -0.05317   4.17769   1.53970
H     0.31425   2.82807   2.62370
H    -1.29295   2.98034   1.91139
C     3.39393   3.69244   1.55864
H     4.15350   3.89378   2.30718
H     2.54823   4.33898   1.76715
H     3.79880   3.98794   0.59542
C     2.32417   1.36117   3.34196
H     1.38936   0.80619   3.32910
H     2.17606   2.24455   3.95634
H     3.06674   0.75143   3.84783
C     4.53261   0.90574   1.21798
H     4.88519   1.08691   0.20446
H     5.26899   1.38281   1.87012
C     1.82158  -1.51328   0.00960
C     0.89850  -1.87680   1.04435
C    -0.31891  -2.29967   0.44990
C    -0.16472  -2.21870  -0.95779
C     1.12338  -1.71041  -1.23290
C     1.21609  -2.04040   2.49925
H     0.41614  -1.64299   3.12400
H     2.14066  -1.53326   2.75509
H     1.32225  -3.10244   2.72910
C    -1.50764  -2.87792   1.15459
H    -2.43339  -2.47492   0.73983
H    -1.48017  -2.64841   2.21774
H    -1.52150  -3.96364   1.03245
C    -1.10037  -2.77741  -1.98515
H    -0.72923  -3.75064  -2.31806
H    -1.17189  -2.12513  -2.85472
H    -2.09820  -2.91087  -1.57511
C     1.68352  -1.74478  -2.62353
H     1.74053  -2.78470  -2.95546
H     2.67779  -1.32113  -2.67568
H     1.02982  -1.21978  -3.32138
C     3.81595  -3.54001   1.06389
H     3.04537  -4.20367   0.68295
H     3.72791  -3.52315   2.14457
H     4.77660  -3.98654   0.82672
C     4.78721  -1.92895  -1.26140
H     4.89911  -1.01723  -1.83792
H     4.44007  -2.70829  -1.93151
H     5.78236  -2.21324  -0.93135
C     4.56028  -0.59531   1.50837
H     4.19090  -0.75925   2.52054
H     5.60458  -0.91908   1.52553
O    -1.49870  -0.05774  -0.68781
