33

Zn    0.00000   0.00000   0.00000
Cl    2.07293  -0.42869  -0.73011
N     3.48280   3.40488   2.97646
C     3.78794   2.63500   1.86430
O     4.88259   2.62787   1.37082
N     2.73577   1.88959   1.36282
C     1.51990   1.93327   1.95001
C     1.24057   2.72207   3.08944
C     2.29030   3.53819   3.68251
O     2.20343   4.25404   4.64682
C    -0.09789   2.48117   3.36634
N    -0.53828   1.62682   2.44479
N     0.42884   1.27920   1.56957
H     4.26332   3.94621   3.33416
H     2.89652   1.25181   0.57961
H    -0.71792   2.87043   4.14807
H    -1.44900   1.18738   2.31709
N    -0.42887   1.27920  -1.56957
C    -1.51993   1.93328  -1.95000
N     0.53827   1.62687  -2.44476
N    -2.73579   1.88960  -1.36279
C    -1.24060   2.72208  -3.08942
C     0.09786   2.48119  -3.36633
H     1.44899   1.18746  -2.31704
C    -3.78797   2.63501  -1.86427
H    -2.89653   1.25184  -0.57958
C    -2.29034   3.53819  -3.68249
H     0.71788   2.87045  -4.14806
N    -3.48283   3.40488  -2.97644
O    -4.88261   2.62789  -1.37078
O    -2.20347   4.25405  -4.64679
H    -4.26336   3.94622  -3.33412
O    -1.52753  -0.31586   0.53795
