30

Hg    0.00000   0.00000   0.00000
I     1.93412  -0.76160   1.59308
O    -1.47838  -2.04697   1.20256
O    -1.54587   0.47062   2.08099
O    -2.53768  -0.14104   3.98181
N    -0.29049  -2.27249  -1.18891
C     0.22611  -2.36897  -2.38991
H     0.48764  -1.43879  -2.88012
C     0.44588  -3.58755  -3.04644
H     0.87560  -3.58908  -4.03533
C     0.11898  -4.74851  -2.40206
H     0.28678  -5.71298  -2.85922
C    -0.45351  -4.68904  -1.11495
C    -0.82237  -5.84136  -0.39272
H    -0.65567  -6.81045  -0.83724
C    -1.37999  -5.71983   0.84674
H    -1.66127  -6.59747   1.40812
C    -1.60970  -4.45847   1.41571
H    -2.06603  -4.41245   2.39144
C    -1.26570  -3.31241   0.74153
C    -0.65636  -3.40478  -0.54504
C    -1.96662  -1.87352   2.50687
H    -2.98795  -2.26348   2.61265
H    -1.31569  -2.36239   3.24595
C    -1.98365  -0.38265   2.81039
C    -2.58133   1.22769   4.39195
H    -1.56971   1.63026   4.46269
H    -3.06537   1.23227   5.36433
H    -3.15034   1.81889   3.67283
O    -0.90649   0.86682  -1.07211
