27

Br   -2.07745  -1.01102   0.36661
Zn    0.00000   0.00000   0.00000
N    -0.36083   2.07638  -0.53900
C     0.25769   1.21499  -2.65971
F    -1.30852   5.94196   3.22814
C     0.11793   4.29264   0.36118
H     0.89481   4.44939  -0.37177
C    -0.11535   5.24944   1.32693
H     0.44015   6.17350   1.34354
C     0.52500   1.45560  -4.00734
H     0.50765   2.46542  -4.38684
C    -1.07479   5.00510   2.29656
C    -0.04517   2.30520  -1.75325
H    -0.00723   3.31378  -2.16622
C    -1.53817   2.85573   1.38362
H    -2.09019   1.92770   1.39315
C     0.81658  -0.89265  -4.29665
H     1.03248  -1.75613  -4.90434
C    -0.59606   3.09062   0.37795
C     0.80922   0.38435  -4.83621
H     1.02133   0.54258  -5.88255
C     0.54116  -1.04460  -2.94500
H     0.53644  -2.02313  -2.48398
C    -1.79012   3.81864   2.33785
H    -2.52151   3.65806   3.11342
N     0.27174  -0.02376  -2.15107
O     1.55427   0.17012   0.52707
