61

Hg    0.00000   0.00000   0.00000
Br   -2.13836  -1.15714   0.28048
O     3.86123   1.70671   2.76262
O     2.70790   4.17338   3.68970
O     0.04906   4.23739   4.21445
O    -1.20533  -4.08137  -2.72077
O    -3.78814  -3.25146  -3.67936
O    -4.17852  -0.62434  -4.22353
N     1.70806  -1.13815   1.38301
N     1.34474  -1.57888  -1.35154
C     2.31531  -2.29061   0.77427
C     2.34989  -0.45458   2.24342
C     1.75467   0.72104   2.84280
C     2.54880   1.87185   3.04587
C     1.93887   3.05384   3.48327
C     0.55372   3.06729   3.75319
C    -0.20710   1.91478   3.57745
C     0.38752   0.76149   3.11230
C     4.69880   2.81127   2.47780
C     2.31698   5.35310   3.00280
C    -1.33902   4.34331   4.43154
C     2.55589  -2.03634  -0.72615
C     0.74836  -2.31038  -2.20527
C    -0.48729  -1.87021  -2.81725
C    -1.52971  -2.80244  -3.01927
C    -2.77477  -2.34749  -3.47009
C    -2.95834  -0.97671  -3.75109
C    -1.91046  -0.07730  -3.57456
C    -0.69520  -0.52083  -3.09894
C    -2.19921  -5.04992  -2.44421
C    -5.01110  -3.00959  -2.99955
C    -4.45572   0.73895  -4.44704
H     1.61481  -3.12579   0.87821
H     3.27010  -2.55107   1.25139
H     3.37554  -0.70637   2.52593
H    -1.25968   1.90943   3.80761
H    -0.19586  -0.14865   3.03001
H     5.63137   2.36975   2.12576
H     4.27209   3.43401   1.68883
H     4.88772   3.41577   3.36588
H     3.19891   5.99287   2.99705
H     2.01889   5.12731   1.97538
H     1.49902   5.86201   3.51513
H    -1.50690   5.37378   4.74123
H    -1.90337   4.14318   3.51628
H    -1.67411   3.66963   5.22591
H     3.30220  -1.24195  -0.83045
H     2.93397  -2.95808  -1.18948
H     1.12348  -3.30197  -2.47209
H    -2.03456   0.96621  -3.81243
H     0.13524   0.17160  -3.01706
H    -1.64835  -5.91817  -2.08194
H    -2.88035  -4.70200  -1.66483
H    -2.76436  -5.31688  -3.33810
H    -5.54241  -3.96065  -3.00935
H    -4.83002  -2.69867  -1.96701
H    -5.60867  -2.25130  -3.50775
H    -5.49753   0.77583  -4.76194
H    -4.33193   1.32697  -3.53323
H    -3.82522   1.15248  -5.23988
O     0.61169   1.52076  -0.18878
