66

Pt    0.00000   0.00000   0.00000
P    -1.77201   0.34335  -1.36559
F     2.97721   1.28206  -2.76159
N    -1.25421  -0.24997   1.86071
C     1.35584   0.15336  -1.49793
C     1.47349   2.72184   0.19776
H     1.32485   1.83087   0.79671
C    -3.44619   0.18292  -0.58191
H    -3.81378   1.18455  -0.34578
H    -4.12833  -0.24967  -1.31702
C    -1.67755  -2.32632  -2.02540
H    -2.62686  -2.63081  -1.58739
H    -0.91397  -2.29055  -1.24432
H    -1.38027  -3.08028  -2.75131
C     1.77295  -2.28381  -1.55487
H     1.77577  -2.26684  -0.47342
C     2.03662   1.27692  -1.75062
C     1.89430   2.59071  -1.12665
C    -2.01034   1.95533  -2.26708
H    -3.03600   1.97393  -2.65931
C    -1.01807   2.11667  -3.41263
H    -1.10828   3.11299  -3.84260
H    -1.19259   1.38951  -4.20168
H    -0.00290   1.99366  -3.04420
C    -2.69843  -0.00022   1.83944
H    -2.85514   1.08099   1.77540
H    -3.12892  -0.34104   2.79565
C    -1.79772  -0.95824  -2.69479
H    -0.87086  -0.77973  -3.25200
C     1.59617  -1.08350  -2.24741
C     2.17528   3.74510  -1.85945
H     2.52205   3.65666  -2.87854
C    -2.97179  -0.92221  -3.66794
H    -2.78146  -1.62063  -4.48115
H    -3.11238   0.06600  -4.09841
H    -3.90044  -1.22586  -3.18843
C     1.99083  -3.48121  -3.62201
H     2.14370  -4.40859  -4.15539
C    -0.98671  -1.61507   2.31797
H     0.08883  -1.77720   2.36053
H    -1.41642  -2.34247   1.63086
H    -1.40944  -1.78316   3.31803
C     1.62241  -1.10871  -3.64302
H     1.49419  -0.19010  -4.19735
C    -0.64765   0.68769   2.80973
H    -1.10384   0.58932   3.80428
H    -0.78587   1.71133   2.45890
H     0.41793   0.48334   2.89626
C     1.31135   3.97411   0.75967
H     0.99498   4.06497   1.78952
C    -1.83376   3.08493  -1.25513
H    -0.83663   3.03508  -0.82059
H    -2.56551   3.02242  -0.45113
H    -1.94821   4.05293  -1.73913
C     1.56891   5.11484   0.01561
H     1.44191   6.09234   0.45769
C    -3.45186  -0.66492   0.68690
H    -4.48901  -0.81514   1.00002
H    -3.02859  -1.64724   0.47916
C     1.97632  -3.46743  -2.23621
H     2.12276  -4.38669  -1.68676
C     1.81445  -2.29851  -4.32028
H     1.83048  -2.30249  -5.40128
C     2.00845   4.99373  -1.29225
H     2.22489   5.87888  -1.87313
O     1.26416  -0.41065   0.97763
