28

Cl   -1.22312   1.86629   0.15331
Pt    0.00000   0.00000   0.00000
O    -1.46931   4.24589  -5.15291
N     0.19092   0.03593  -1.97769
N     0.96290  -1.74081  -0.25397
C    -0.22046   1.07326  -2.81093
C     0.14974   2.38597  -2.50237
H     0.77922   2.56699  -1.64438
C    -0.26273   3.42894  -3.29863
H     0.01783   4.44455  -3.07329
C    -1.07361   3.18897  -4.40821
C    -1.44489   1.88267  -4.71691
H    -2.08384   1.69102  -5.56855
C    -1.01310   0.83282  -3.93306
H    -1.33482  -0.17356  -4.15807
C     0.65228  -1.07497  -2.47792
H     0.76023  -1.21659  -3.54865
C     1.09290  -2.07909  -1.56279
C     1.65280  -3.30355  -1.94372
H     1.73649  -3.54279  -2.99215
C     2.08236  -4.17850  -0.96920
H     2.51619  -5.12945  -1.23666
C     1.94508  -3.81272   0.36855
H     2.26977  -4.47042   1.15793
C     1.38206  -2.59046   0.68085
H     1.24751  -2.26746   1.70518
H    -2.04851   3.95677  -5.86901
O    -0.11644  -0.15240   1.63882
