61

Pt    0.00000   0.00000   0.00000
P     1.31263  -1.62864  -1.32922
N    -3.35956  -1.72330  -1.85768
N    -0.66814   0.72230  -1.97486
O    -3.89805  -1.66754  -2.99804
C    -1.67514  -1.10815  -0.25078
C    -2.19771  -2.03112   0.64159
H    -1.76076  -2.18101   1.61468
C    -3.30928  -2.77481   0.27718
H    -3.74479  -3.49166   0.95548
C    -3.85228  -2.61139  -0.96976
H    -4.69677  -3.17681  -1.33164
C    -2.29471  -0.93613  -1.49914
C    -1.78135   0.09481  -2.40150
C    -2.37444   0.47329  -3.60968
H    -3.26431  -0.03347  -3.94191
C    -1.81189   1.48457  -4.36472
H    -2.26919   1.77855  -5.29738
C    -0.66352   2.11078  -3.90848
H    -0.18794   2.90438  -4.46176
C    -0.13454   1.69373  -2.70065
H     0.75378   2.16728  -2.30366
C    -1.15288   1.43275   0.96928
H    -1.30369   2.25418   0.26209
H    -0.62856   1.82596   1.84111
H    -2.12959   1.06681   1.28891
C     0.42761  -0.80935   1.87186
H    -0.40383  -0.69408   2.56891
H     1.29656  -0.32518   2.32002
H     0.65009  -1.87556   1.76083
C     2.41567  -0.92733  -2.65084
H     1.82174  -0.24055  -3.26255
H     3.17923  -0.34847  -2.12202
C     2.49758  -2.78120  -0.56646
C     3.28443  -2.30286   0.47647
H     3.13902  -1.29707   0.84283
C     4.25793  -3.10710   1.03975
H     4.86528  -2.72782   1.84780
C     4.45180  -4.39350   0.56535
H     5.21013  -5.02427   1.00497
C     3.67594  -4.87015  -0.47885
H     3.83290  -5.86983  -0.85715
C     2.70501  -4.06875  -1.05032
H     2.11061  -4.44449  -1.87086
C     0.16487  -2.71142  -2.22888
C    -0.29302  -2.40996  -3.50771
H     0.12021  -1.57273  -4.05399
C    -1.28708  -3.17565  -4.09157
H    -1.63942  -2.93163  -5.08218
C    -1.84253  -4.23884  -3.40130
H    -2.62443  -4.82678  -3.85659
C    -1.40841  -4.53168  -2.11766
H    -1.84924  -5.35159  -1.56949
C    -0.41851  -3.76800  -1.53060
H    -0.08927  -3.98212  -0.52163
C     3.04307  -1.99911  -3.47206
H     2.41732  -2.45743  -4.22702
C     4.28572  -2.41327  -3.29866
H     4.92942  -1.97605  -2.55322
H     4.71238  -3.19696  -3.90037
O     1.32840   0.97658   0.06434
