41

Zn    0.00000   0.00000   0.00000
Cl   -0.16496  -2.15447   0.70114
N     3.37056  -1.94794  -0.30540
C     2.87440  -0.73913  -0.22758
N     1.79999  -0.51374  -1.00895
C     1.60429  -1.67822  -1.62207
N     0.70261  -2.00347  -2.52946
C     0.69149  -3.25652  -2.94084
C    -0.32978  -3.62733  -3.96321
C     1.60544  -4.21424  -2.45826
C     2.56784  -3.85660  -1.54743
C     3.57255  -4.75273  -0.92822
N     2.56705  -2.56336  -1.17386
N    -2.39838  -1.01828  -3.24837
C    -2.33113  -0.92793  -1.94120
N    -1.42354  -0.04857  -1.48977
C    -0.85843   0.43551  -2.58896
N     0.11623   1.31075  -2.69393
C     0.53297   1.60509  -3.90480
C     1.64576   2.58605  -4.01971
C    -0.05046   1.02412  -5.05595
C    -1.07989   0.12600  -4.93717
C    -1.80321  -0.53344  -6.05426
N    -1.46912  -0.15721  -3.67612
H     3.29291   0.02037   0.40292
H    -0.53984  -4.69169  -3.92723
H     0.04490  -3.38066  -4.95641
H    -1.24500  -3.06714  -3.79055
H     1.53996  -5.23600  -2.79420
H     3.34806  -4.84775   0.13426
H     4.56418  -4.31039  -1.00618
H     3.55955  -5.73454  -1.39098
H    -2.95032  -1.50912  -1.28784
H     1.96604   2.87724  -3.02435
H     1.31495   3.46725  -4.56726
H     2.48169   2.14775  -4.56188
H     0.31477   1.29362  -6.03391
H    -1.25182  -0.43763  -6.98456
H    -1.96835  -1.58247  -5.81904
H    -2.78371  -0.07241  -6.17478
O     0.25366   1.37513   0.87589
