65

Ti    0.00000   0.00000   0.00000
Cl   -1.32286   1.52399   0.99345
N     1.04401  -1.33894  -1.25141
N    -0.02403   1.21182  -1.78418
O    -1.45720  -0.89429  -0.56913
O     1.42274   0.92999   0.34915
C    -3.19293  -2.39607  -1.18373
H    -3.65242  -2.11473  -0.23772
H    -3.30154  -3.46319  -1.34951
H    -3.70496  -1.85665  -1.98102
C    -1.74403  -1.98240  -1.17063
C    -0.78908  -2.74976  -1.80826
H    -1.09584  -3.65851  -2.30014
C     0.58454  -2.42747  -1.80867
C     1.52813  -3.39668  -2.47196
H     2.28535  -2.86488  -3.04605
H     0.98974  -4.07886  -3.12333
H     2.04184  -3.97788  -1.70647
C     2.43439  -1.11648  -1.20132
C     3.06214  -0.29578  -2.13731
H     2.48265   0.13891  -2.94116
C     4.41813  -0.03956  -2.03919
H     4.89117   0.61045  -2.76056
C     5.16650  -0.61865  -1.02917
H     6.22518  -0.41982  -0.95893
C     4.55171  -1.45567  -0.11147
H     5.13196  -1.91698   0.67372
C     3.19424  -1.70464  -0.18966
H     2.69876  -2.33378   0.53851
C    -1.03452   0.87045  -2.69420
C    -0.72743   0.28053  -3.91840
H     0.30672   0.10449  -4.18261
C    -1.74364  -0.11015  -4.77255
H    -1.49870  -0.57878  -5.71416
C    -3.06625   0.10161  -4.42448
H    -3.85651  -0.20251  -5.09427
C    -3.37311   0.70505  -3.21356
H    -4.40429   0.87893  -2.94349
C    -2.36842   1.08707  -2.34482
H    -2.59351   1.55240  -1.39347
C     0.85055   2.09856  -2.10275
H     0.76835   2.59806  -3.07787
C     1.90654   2.55846  -1.25783
C     2.71691   3.62191  -1.68437
H     2.56456   4.03743  -2.67029
C     3.67683   4.12813  -0.84911
H     4.31271   4.93800  -1.17219
C     3.81209   3.62217   0.44502
H     4.54785   4.08195   1.08395
C     3.04488   2.57855   0.92220
C     2.10702   1.98366   0.03185
C     3.13009   2.08790   2.36143
C     4.15277   2.87989   3.18377
H     5.15732   2.76345   2.78270
H     4.15491   2.50380   4.20430
H     3.89805   3.93657   3.21872
C     1.75163   2.26032   3.01788
H     1.43117   3.29938   2.96585
H     1.80162   1.96334   4.06303
H     0.99989   1.64139   2.52711
C     3.53243   0.60813   2.39524
H     2.76054  -0.01500   1.94709
H     3.66798   0.28875   3.42611
H     4.46572   0.45686   1.85579
O     0.17513  -1.03765   1.27087
