48

Ta    0.00000   0.00000   0.00000
Cl    1.26998  -1.88658  -0.32452
Cl   -0.99172   2.03608   0.24287
O     2.08258   0.47099   1.71906
O     4.21314   1.08964   1.61935
C    -1.49244  -0.70408  -1.73022
C    -2.71141   0.10996  -1.51378
C    -2.72775   1.12659  -2.41324
C    -1.56690   1.01155  -3.27560
C    -0.84679  -0.08605  -2.91192
C    -1.68395  -2.20764  -1.72746
H    -0.74608  -2.72336  -1.92108
H    -2.39442  -2.48201  -2.50871
H    -2.07917  -2.55110  -0.77214
C    -3.72239  -0.20238  -0.45660
H    -4.17970   0.70886  -0.07707
H    -3.26351  -0.72665   0.38061
H    -4.51448  -0.83488  -0.86245
C    -3.71829   2.23491  -2.52830
H    -4.02719   2.36799  -3.56381
H    -3.26967   3.16892  -2.18749
H    -4.59866   2.03560  -1.92448
C    -1.27633   1.97377  -4.37642
H    -1.29027   2.99472  -3.99682
H    -2.03411   1.89903  -5.15669
H    -0.30573   1.77607  -4.82248
C     0.32149  -0.69014  -3.62716
H     0.89863  -1.32922  -2.96265
H     0.97844   0.07979  -4.02633
H    -0.02869  -1.29573  -4.46491
C     1.74903   1.11956  -1.01941
H     2.29953   0.39299  -1.62111
H     1.33398   1.85494  -1.71244
C     2.77374   1.84404  -0.13513
C     2.98445   1.05179   1.14101
C     2.23224   3.20515   0.33651
H     2.05830   3.84285  -0.52639
H     2.94867   3.69606   0.99233
H     1.29149   3.07960   0.86769
C     4.09626   2.04952  -0.88144
H     3.91057   2.60259  -1.79876
H     4.54336   1.09246  -1.13798
H     4.80292   2.60839  -0.27390
C     4.43836   0.39985   2.84597
H     5.49909   0.50150   3.05930
H     4.16315  -0.65100   2.74210
H     3.83943   0.84283   3.64337
O    -0.63384  -0.57922   1.40899
