42

Pd    0.00000   0.00000   0.00000
Br   -1.50052   1.64850   0.99184
N    -2.35504  -1.66199  -0.48705
N    -1.47284  -2.04001   1.47757
N     1.40592   1.33203  -0.33698
C    -1.36713  -1.31954   0.35173
C    -3.13195  -2.63678   0.10585
C    -4.25763  -3.33046  -0.31314
H    -4.70766  -3.15875  -1.27692
C    -4.79609  -4.26334   0.55163
H    -5.67150  -4.81787   0.25066
C    -4.23480  -4.50350   1.80198
H    -4.68424  -5.24016   2.44988
C    -3.11465  -3.81952   2.23254
H    -2.69525  -4.01937   3.20466
C    -2.56264  -2.88059   1.37374
C    -2.50037  -1.04367  -1.79798
H    -1.66219  -0.31055  -1.87499
C    -3.81502  -0.27413  -1.88467
H    -4.66897  -0.94204  -1.81484
H    -3.86550   0.25711  -2.83112
H    -3.87270   0.45289  -1.07678
C    -2.32726  -2.08204  -2.90240
H    -1.36895  -2.58572  -2.79052
H    -2.34826  -1.59126  -3.87155
H    -3.11814  -2.82621  -2.87233
C    -0.53441  -1.88733   2.58130
H     0.19046  -1.10564   2.24992
C     0.23743  -3.18312   2.81176
H    -0.42175  -3.98347   3.13579
H     0.99496  -3.02605   3.57467
H     0.73172  -3.48829   1.89133
C    -1.25058  -1.37275   3.82643
H    -1.77578  -0.44779   3.59561
H    -0.52376  -1.17077   4.60843
H    -1.96844  -2.09861   4.19782
C     2.26749   2.07782  -0.47180
C     3.33655   3.00899  -0.64460
H     3.12281   3.91771  -0.08154
H     3.44052   3.25287  -1.70189
H     4.26528   2.56655  -0.28376
O     0.90540  -1.22447  -0.63515
