30

Hg    0.00000   0.00000   0.00000
Br   -1.88573   1.13515  -1.05331
N    -0.62718  -2.39246  -0.52393
N     0.98033  -0.83103  -2.15862
C    -0.19178  -2.86233  -1.70091
C    -0.48497  -4.15903  -2.12651
H    -0.11936  -4.50590  -3.08085
C    -1.24082  -4.98220  -1.31128
H    -1.48066  -5.98904  -1.61841
C    -1.68201  -4.48705  -0.09471
H    -2.27317  -5.09021   0.57514
C    -1.34739  -3.18516   0.25096
H    -1.67353  -2.76365   1.19308
C     0.60720  -1.98788  -2.54361
H     0.88894  -2.39297  -3.51824
C     1.69754   0.02563  -2.98171
C     1.51151   0.08467  -4.36514
H     0.76917  -0.54256  -4.83635
C     2.22321   0.99477  -5.11859
H     2.05544   1.04576  -6.18464
C     3.14620   1.85332  -4.52951
C     3.32505   1.79112  -3.14954
H     4.03268   2.45395  -2.67398
C     2.60378   0.90379  -2.38128
H     2.75886   0.85318  -1.31066
C     3.90010   2.84861  -5.35134
H     4.89257   3.01842  -4.94073
H     3.37050   3.80193  -5.35105
H     3.99179   2.51482  -6.38197
O     1.18080  -0.31067   1.10981
