47

Ir    0.00000   0.00000   0.00000
P     1.19409   1.95481   0.43318
F     2.93795  -0.21169  -0.41923
F     1.94073  -2.10537  -0.20723
F     2.78545  -1.94879  -2.62345
F     0.68006  -1.57416  -2.75422
F     2.09539   0.05243  -2.93893
C    -2.05017  -0.95045  -0.10943
C    -2.09220   0.12520   0.83519
C    -1.20549  -0.20214   1.90378
C    -0.56478  -1.44355   1.58895
C    -1.11626  -1.91771   0.34958
C    -2.91933  -1.07579  -1.31380
H    -3.85994  -1.55997  -1.04346
H    -2.43061  -1.67134  -2.08062
H    -3.14180  -0.09741  -1.73199
C    -3.09753   1.23387   0.80526
H    -4.09166   0.83898   1.02313
H    -3.12924   1.69829  -0.17852
H    -2.86772   2.00069   1.54085
C    -1.10662   0.49530   3.22266
H    -1.79423   0.02426   3.92796
H    -1.37461   1.54656   3.14606
H    -0.10323   0.42008   3.63625
C     0.28215  -2.24541   2.52439
H    -0.34809  -2.91253   3.11561
H     0.83176  -1.60132   3.20680
H     0.99846  -2.85154   1.97629
C    -0.92233  -3.27898  -0.23549
H    -1.72583  -3.93739   0.10048
H     0.02576  -3.70848   0.07518
H    -0.94334  -3.24261  -1.32235
C     0.04992   3.34438   0.76395
H     0.60734   4.27005   0.89539
H    -0.53804   3.14851   1.65545
H    -0.61590   3.43700  -0.09040
C     2.19960   2.66541  -0.91288
H     2.46979   3.68881  -0.65685
H     1.60924   2.64736  -1.82530
H     3.09617   2.07440  -1.06907
C     2.33279   2.01802   1.86585
H     2.78381   3.00574   1.93756
H     3.11157   1.27302   1.72900
H     1.79020   1.80213   2.78196
C     1.75517  -0.85446  -0.75487
C     1.82509  -1.07170  -2.27873
O    -0.12138   0.78471  -1.44637
