65

Ni    0.00000   0.00000   0.00000
H    -0.12659  -1.01869   0.97592
P    -0.86452  -1.37402  -1.46077
P     0.84662   1.29178   1.54412
C     2.94257  -0.49486   2.00243
H     2.45559  -0.95930   1.14113
H     3.32601  -1.28421   2.64737
H     3.78491   0.09123   1.64632
C     1.93145   0.36663   2.75674
H     1.21415  -0.32219   3.22079
C     2.59737   1.18207   3.85656
H     3.40537   1.79184   3.46039
H     3.02636   0.50836   4.59838
H     1.88056   1.82621   4.36135
C    -1.19907   0.84577   3.42749
H    -1.41656  -0.01893   2.80012
H    -2.13625   1.20622   3.84971
H    -0.55939   0.53210   4.24897
C    -0.54843   1.94577   2.59539
H    -0.16745   2.72233   3.26613
C    -1.56772   2.54330   1.62691
H    -1.15081   3.38644   1.07990
H    -2.46040   2.87891   2.15329
H    -1.86061   1.78085   0.89793
C     3.05668   2.49981   0.36252
H     3.80151   2.26241   1.11899
H     3.42741   3.33762  -0.22598
H     2.93975   1.64641  -0.30485
C     1.71338   2.85635   0.99444
H     1.06555   3.21337   0.18400
C     1.86124   3.98661   2.00782
H     0.89589   4.35901   2.34114
H     2.38140   4.81345   1.52448
H     2.44177   3.69159   2.87626
C    -3.21240  -1.59945   0.03257
H    -2.67891  -0.83048   0.59717
H    -3.77684  -2.21171   0.73442
H    -3.91708  -1.10996  -0.63350
C    -2.20811  -2.45660  -0.73564
H    -1.65178  -3.03661   0.01164
C    -2.90354  -3.42762  -1.67977
H    -3.56824  -2.90488  -2.36280
H    -3.50845  -4.12572  -1.10104
H    -2.18313  -4.00400  -2.25628
C    -2.72920   0.13314  -2.87236
H    -3.59000  -0.52325  -2.76491
H    -2.91017   0.79212  -3.72012
H    -2.63704   0.75168  -1.98005
C    -1.44466  -0.66239  -3.09134
H    -0.65679   0.06429  -3.32614
C    -1.57647  -1.60954  -4.27950
H    -0.62322  -2.05947  -4.54510
H    -1.91699  -1.03350  -5.13976
H    -2.29942  -2.39948  -4.10172
C     1.65882  -1.74284  -2.40833
H     1.42866  -1.11774  -3.26869
H     2.51109  -2.37416  -2.65666
H     1.94356  -1.08502  -1.58083
C     0.45380  -2.58308  -1.98893
H     0.09144  -3.17069  -2.83834
C     0.84406  -3.53071  -0.85965
H     1.03162  -2.96651   0.05418
H     1.75509  -4.06614  -1.12397
H     0.06679  -4.26600  -0.66570
O     0.15162   1.18681  -1.13622
