63

Cr    0.00000   0.00000   0.00000
Cl   -0.67988  -1.78177  -1.32929
P     0.26983  -1.35007   1.82723
C     1.74796  -2.37554   1.35810
H     2.23666  -2.80338   2.23708
H     1.39472  -3.17701   0.70228
C     2.69726  -1.46404   0.58564
H     3.08890  -0.68273   1.25041
H     3.55205  -2.04149   0.19947
N     1.96347  -0.82387  -0.50569
H     1.56269  -1.56819  -1.09017
C     2.78516   0.02273  -1.36742
H     3.66027  -0.52800  -1.74696
H     3.14925   0.87439  -0.77660
C     1.92860   0.52312  -2.52468
H     1.57602  -0.32561  -3.11632
H     2.49479   1.19524  -3.17170
P     0.43046   1.36323  -1.79556
C     0.98596  -0.40810   3.21654
C     1.12661  -0.91932   4.50152
H     0.76674  -1.91385   4.72632
C     1.71259  -0.14818   5.48895
H     1.81539  -0.54346   6.48897
C     2.16373   1.13015   5.20135
H     2.61641   1.72885   5.97782
C     2.02804   1.64398   3.92166
H     2.37429   2.64241   3.69792
C     1.44033   0.87570   2.93437
H     1.30490   1.27089   1.92744
C    -0.81447  -2.50863   2.70770
C    -0.65507  -3.88821   2.76552
H     0.19747  -4.36281   2.30275
C    -1.59576  -4.66090   3.42512
H    -1.46785  -5.73281   3.47362
C    -2.69782  -4.06910   4.01837
H    -3.42691  -4.67955   4.53067
C    -2.87219  -2.69520   3.94481
H    -3.73857  -2.23486   4.39618
C    -1.94011  -1.91946   3.28537
H    -2.06809  -0.84651   3.20153
C     1.12246   3.01767  -1.45044
C     0.94938   3.54859  -0.17686
H     0.35558   3.00277   0.54710
C     1.49646   4.77765   0.14908
H     1.35036   5.18685   1.13786
C     2.22371   5.48343  -0.79436
H     2.65498   6.44091  -0.54155
C     2.38815   4.96658  -2.07021
H     2.94178   5.52488  -2.81154
C     1.83921   3.74194  -2.40025
H     1.94832   3.35588  -3.40472
C    -0.55994   1.65267  -3.29431
C    -1.05332   2.91256  -3.62304
H    -0.78751   3.76981  -3.01997
C    -1.88351   3.06777  -4.71814
H    -2.25426   4.04980  -4.97428
C    -2.24624   1.96942  -5.47981
H    -2.89374   2.09488  -6.33527
C    -1.79472   0.70663  -5.12996
H    -2.09948  -0.15488  -5.70597
C    -0.96483   0.54426  -4.03736
H    -0.64956  -0.44571  -3.73816
O    -1.14423   0.94937   0.71549
