70

C    -0.39635   0.63404   1.86324
C    -0.46478   1.81080   3.86722
H    -1.37475   2.26747   4.26977
H     0.39528   2.36974   4.24355
C    -0.36123   0.31224   4.17437
H     0.54662   0.06491   4.73082
H    -1.22337  -0.06853   4.73207
C     0.41976   3.91245   1.48207
C     0.20027   5.09877   0.79426
H     1.03852   5.75457   0.60700
C    -1.05700   5.45450   0.33318
C    -2.12297   4.59862   0.57718
H    -3.10804   4.86303   0.22026
C    -1.94772   3.40724   1.25963
C    -0.66776   3.06673   1.70403
C     1.79152   3.54463   1.94712
H     2.53205   4.20364   1.50303
H     2.02418   2.51729   1.66327
H     1.87171   3.62940   3.03061
C    -1.27700   6.73789  -0.40812
H    -0.33260   7.17231  -0.72513
H    -1.78731   7.45752   0.23215
H    -1.90160   6.57154  -1.28366
C    -3.10888   2.49085   1.50272
H    -4.00316   2.87119   1.01675
H    -3.31050   2.38963   2.56912
H    -2.89092   1.50243   1.09990
C    -0.36321  -1.67529   2.58202
C     0.81186  -2.43828   2.57590
C     0.71638  -3.78135   2.23824
H     1.61942  -4.37273   2.19471
C    -0.50007  -4.38314   1.95241
C    -1.65809  -3.62643   2.06219
H    -2.61860  -4.09360   1.89203
C    -1.61114  -2.27731   2.38072
C     2.12829  -1.84633   2.96271
H     2.92279  -2.57673   2.83800
H     2.11108  -1.52994   4.00582
H     2.36069  -0.97563   2.34628
C    -0.55572  -5.81973   1.53583
H    -1.55794  -6.22495   1.65361
H     0.14098  -6.41926   2.11788
H    -0.27272  -5.90470   0.48641
C    -2.88347  -1.49729   2.55616
H    -3.72012  -2.01646   2.09559
H    -2.80691  -0.50410   2.11772
H    -3.10352  -1.38387   3.61899
C    -0.16713   1.65323  -0.90897
H     0.63627   2.36902  -1.10554
C    -1.41880   1.87439  -1.52900
C    -1.82721   2.99425  -2.25023
H    -1.15125   3.82861  -2.36023
C    -3.09798   3.03850  -2.81907
H    -3.39771   3.92204  -3.36450
C    -3.96954   1.97723  -2.72522
H    -4.94006   2.01700  -3.19680
C    -3.59762   0.80867  -2.02911
C    -4.38606  -0.35737  -1.92935
H    -5.36108  -0.38739  -2.39271
C    -3.87637  -1.44574  -1.26637
H    -4.43259  -2.36830  -1.20329
C    -2.62001  -1.36775  -0.65608
H    -2.20445  -2.21765  -0.13094
C    -2.33223   0.78574  -1.40296
N    -0.48985   1.84450   2.40672
N    -0.31706  -0.27345   2.84177
N    -1.88402  -0.27292  -0.68886
Cl    2.22398   0.40236   0.48665
Ru    0.00000   0.00000   0.00000
O     0.40526  -1.28998  -0.94563
