49

Ir    0.00000   0.00000   0.00000
Cl   -0.91547  -2.12570  -0.85177
O    -1.44552  -0.09723   0.80096
O     3.44780  -2.06428  -1.05956
N    -1.45875   1.63043  -1.32624
N     1.75106  -1.11129   0.00244
C     0.74236   0.17078  -1.95129
O    -1.69439   2.53888  -3.34353
C     0.68927   0.98187  -4.23335
C     2.38995  -1.27390  -1.10826
C     0.14629   0.95563  -2.93614
C    -1.02343   1.71525  -2.51933
C     1.89283  -0.56455  -2.25792
C     2.38367  -1.88795   1.06320
C     2.44927  -0.55563  -3.54341
C    -2.63343   2.46285  -1.17061
C     1.39743  -2.90724   1.62839
H     0.56199  -2.38969   2.09488
H     1.88918  -3.52951   2.37188
H     0.99648  -3.53105   0.83258
C     3.54451  -2.55879   0.28066
H     4.52769  -2.28795   0.67334
H     3.45069  -3.64712   0.24901
C     2.88938  -0.94822   2.15733
H     3.56579  -0.20359   1.74250
H     3.40658  -1.51675   2.92614
H     2.04975  -0.42718   2.61100
C     1.82047   0.22130  -4.50223
H     2.22947   0.24163  -5.50233
C     0.07806   1.80391  -5.31842
H     0.62967   1.68458  -6.24754
H     0.07327   2.85606  -5.04099
H    -0.95699   1.51043  -5.47900
C     3.67073  -1.35157  -3.85968
H     4.49728  -1.05181  -3.21778
H     3.96062  -1.21563  -4.89822
H     3.48657  -2.40887  -3.67742
C    -2.38384   3.48757  -0.06684
H    -2.19139   2.96118   0.86415
H    -3.25225   4.13023   0.05567
H    -1.51396   4.09737  -0.30220
C    -3.82642   1.57298  -0.82614
H    -4.02429   0.87423  -1.63592
H    -4.71115   2.17798  -0.64414
H    -3.58671   0.99627   0.06300
C    -2.75632   3.11084  -2.57987
H    -3.70307   2.87315  -3.07085
H    -2.62047   4.19573  -2.55742
O     0.99822   1.29404   0.22697
