56

W     0.00000   0.00000   0.00000
Cl    0.08088   1.34949  -1.97240
O     0.44528  -1.42153  -0.76989
O    -1.79169   0.02886  -0.15735
O     1.56844   0.68508   0.53578
O    -1.73573   4.24056   3.12334
N    -0.54841   2.22907   1.16408
C    -2.83496   0.35396   0.62775
C    -3.74525  -0.62861   1.03682
C    -4.79395  -0.24396   1.85569
H    -5.50166  -0.99186   2.18292
C    -4.95280   1.07314   2.27456
C    -4.01836   2.02324   1.88355
H    -4.10309   3.04288   2.22847
C    -2.95435   1.67806   1.06504
C    -1.88258   2.65118   0.64777
H    -2.12957   3.65028   1.02161
H    -1.81498   2.68042  -0.45048
C     0.46455   3.22336   0.72112
H     0.15957   4.23168   1.03064
H     0.49401   3.20341  -0.37813
C     1.83995   2.91598   1.25813
C     2.63922   3.87689   1.85687
H     2.27656   4.89254   1.93539
C     3.90105   3.56292   2.34546
C     4.35670   2.25381   2.23865
H     5.33031   1.99858   2.63127
C     3.59636   1.26551   1.63669
C     2.33551   1.61036   1.13086
C    -0.57664   2.14234   2.64335
H     0.31670   1.60260   2.97715
H    -1.45208   1.54887   2.92018
C    -0.61069   3.45199   3.44403
H    -0.64973   3.16674   4.50684
H     0.31184   4.03216   3.29614
C    -1.89290   5.34238   3.98042
H    -2.03597   5.01886   5.01805
H    -2.77639   5.87896   3.64094
H    -1.02227   6.00830   3.93718
C    -3.51441  -2.04241   0.59527
H    -3.80404  -2.74174   1.37523
H    -2.45182  -2.18514   0.35628
H    -4.09466  -2.26197  -0.30114
C    -6.11767   1.45596   3.13675
H    -7.01142   1.57593   2.52423
H    -5.92856   2.39551   3.64905
H    -6.32084   0.68429   3.87562
C     4.76694   4.61403   2.97079
H     5.24500   4.23335   3.87073
H     4.18762   5.49751   3.22575
H     5.55271   4.91055   2.27628
C     4.05744  -0.15426   1.50553
H     4.52656  -0.49594   2.42550
H     4.78419  -0.24175   0.69801
H     3.20542  -0.80147   1.26981
O    -0.19651  -0.64165   1.50737
