51

W     0.00000   0.00000   0.00000
O     1.62589  -0.38478  -0.18675
O    -0.35889  -0.48456   1.76802
O    -0.53390   0.53674  -1.68312
O     0.07876   1.82081   0.54289
N    -2.37154   0.63595   0.25311
C    -1.28386  -1.40431   2.09199
C    -0.89964  -2.70964   2.43522
C    -1.88987  -3.62193   2.75176
H    -1.60832  -4.63245   3.00992
C    -3.23968  -3.28060   2.73062
C    -3.60348  -1.99562   2.35575
H    -4.64855  -1.72195   2.31160
C    -2.63805  -1.05439   2.03112
C    -2.93629   0.35678   1.59839
H    -2.46363   1.04057   2.31352
H    -4.02024   0.54619   1.60039
C    -3.26687   0.01976  -0.74586
H    -4.26120   0.49512  -0.68248
H    -3.38154  -1.03625  -0.46179
C    -2.81518   0.05192  -2.19146
C    -3.76559  -0.20832  -3.17303
H    -4.79475  -0.35150  -2.87451
C    -3.42735  -0.30886  -4.51259
C    -2.09223  -0.16498  -4.87517
H    -1.80807  -0.27189  -5.91208
C    -1.11753   0.10405  -3.93448
C    -1.48233   0.23543  -2.58240
C    -2.27081   2.09095   0.04046
H    -3.17624   2.60885   0.39344
H    -2.16400   2.27421  -1.03446
C    -1.01597   2.64068   0.76113
H    -0.80752   3.65765   0.38508
H    -1.19962   2.72011   1.85018
C     0.56129  -3.03978   2.38025
H     1.03555  -2.45368   1.57588
H     0.71142  -4.09976   2.19534
H     1.05058  -2.77216   3.31707
C    -4.27863  -4.30760   3.06809
H    -4.36129  -5.03329   2.25979
H    -5.25116  -3.84564   3.21487
H    -4.00590  -4.84643   3.97280
C    -4.47593  -0.56553  -5.55266
H    -5.34153  -1.05833  -5.11768
H    -4.08021  -1.18805  -6.35117
H    -4.80613   0.37572  -5.99323
C     0.33682   0.23476  -4.27079
H     0.57796  -0.31684  -5.17545
H     0.93538  -0.14349  -3.43435
H     0.60154   1.28219  -4.41949
O    -0.57500  -1.46543  -0.49436
