53

Pd    0.00000   0.00000   0.00000
N     2.45211   3.35610  -0.34870
C     2.11780   2.20462   0.28511
H     2.64757   1.84645   1.15045
N     1.10981   1.59476  -0.27851
C     0.72910   2.37411  -1.34113
C    -0.29744   2.17777  -2.26171
H    -0.93443   1.28990  -2.19017
C    -0.45097   3.14205  -3.23398
H    -1.23144   3.04080  -3.97247
C     0.38739   4.26124  -3.29024
H     0.22865   4.98988  -4.07093
C     1.40648   4.46492  -2.38217
H     2.04230   5.33484  -2.44178
C     1.57160   3.50168  -1.39496
C     3.45312   4.30121   0.06468
H     3.93464   4.71270  -0.82719
H     4.20716   3.77476   0.65524
C     2.83663   5.43471   0.89945
H     2.06839   5.93127   0.29998
H     2.35646   5.01337   1.78427
C     3.88023   6.42893   1.29996
H     4.40169   6.90653   0.48043
C     4.18124   6.72899   2.54863
H     3.67410   6.26768   3.37997
H     4.93793   7.45376   2.79438
Cl    1.36008  -1.21387  -1.37513
N    -1.10920  -1.59504   0.27913
C    -2.11717  -2.20497  -0.28448
N    -2.45163  -3.35632   0.34947
C    -1.57127  -3.50179   1.39587
C    -0.72869  -2.37428   1.34196
C     0.29774  -2.17790   2.26268
H     0.93483  -1.29009   2.19112
C     0.45101  -3.14202   3.23515
H     1.23136  -3.04071   3.97376
C    -0.38745  -4.26112   3.29148
H    -0.22893  -4.98963   4.07234
C    -1.40640  -4.46488   2.38328
H    -2.04231  -5.33473   2.44294
C    -3.45265  -4.30142  -0.06396
H    -3.93401  -4.71314   0.82789
H    -4.20681  -3.77489  -0.65429
C    -2.83626  -5.43469  -0.89913
H    -2.06806  -5.93153  -0.29983
H    -2.35607  -5.01308  -1.78381
C    -3.88006  -6.42857  -1.29996
H    -4.40129  -6.90672  -0.48059
C    -4.18129  -6.72796  -2.54873
H    -3.67438  -6.26609  -3.37992
H    -4.93809  -7.45252  -2.79474
H    -2.64686  -1.84692  -1.14992
O    -0.98262   0.87635   0.99447
