58

Au    0.00000   0.00000   0.00000
P    -0.01651   2.24030   0.17526
C     0.68599   3.33570  -1.10080
C     0.96691   2.84232  -2.37938
C     1.40705   3.72050  -3.36514
H     1.61388   3.33065  -4.35140
C     1.58949   5.06293  -3.09368
H     1.93123   5.73055  -3.87028
C     1.34610   5.54533  -1.81785
H     1.50386   6.58948  -1.59143
C     0.89541   4.68895  -0.83234
H     0.71337   5.07892   0.15777
C     0.86405   1.40642  -2.71680
C     1.90949   0.55049  -2.37831
H     2.76265   0.94496  -1.84254
C     1.85928  -0.78609  -2.73128
H     2.67006  -1.44449  -2.45980
C     0.76149  -1.28226  -3.41376
H     0.71328  -2.32934  -3.66786
C    -0.27739  -0.43496  -3.75738
H    -1.13611  -0.81922  -4.28787
C    -0.22281   0.90706  -3.42341
H    -1.02787   1.57216  -3.70346
C     0.84372   2.75930   1.72452
H     0.76710   3.84199   1.87746
C     2.31277   2.36496   1.55743
H     2.36242   1.29716   1.31647
H     2.75181   2.91689   0.72043
C     3.09930   2.63472   2.83570
H     4.13655   2.32329   2.70049
H     3.09639   3.70759   3.04550
C     2.47576   1.88491   4.00852
H     3.03749   2.08814   4.92198
H     2.52102   0.81098   3.81668
C     1.02065   2.30443   4.18876
H     0.97668   3.37091   4.42579
H     0.57457   1.75821   5.02162
C     0.22194   2.03369   2.91642
H     0.21312   0.95750   2.71198
H    -0.81292   2.35628   3.05726
C    -1.77209   2.81526   0.31846
H    -2.19050   2.18444   1.11694
C    -2.47593   2.46193  -0.99266
H    -2.29666   1.40873  -1.23338
H    -2.05422   3.06857  -1.80001
C    -3.97304   2.73105  -0.88076
H    -4.46209   2.49617  -1.82784
H    -4.40025   2.08113  -0.11381
C    -4.22359   4.19012  -0.51045
H    -5.29514   4.36742  -0.40343
H    -3.85571   4.83572  -1.31160
C    -3.50817   4.54212   0.79033
H    -3.91529   3.93761   1.60424
H    -3.67762   5.59243   1.03629
C    -2.00743   4.28252   0.66477
H    -1.60451   4.91638  -0.12826
H    -1.51222   4.54206   1.60355
O    -0.02683  -1.64807  -0.07516
