33

I     2.30187  -0.45164  -0.94801
Zn    0.00000   0.00000   0.00000
N    -0.31042   2.83109   1.26444
C     0.07343   1.74291   1.23193
C    -0.85575   4.12719   1.23778
C    -0.67034   4.66737  -0.18316
H     0.38497   4.70429  -0.44643
H    -1.08178   5.67076  -0.24665
H    -1.18875   4.03413  -0.90028
C    -2.34170   4.00462   1.58620
H    -2.84730   3.35239   0.87705
H    -2.80481   4.98644   1.54690
H    -2.46958   3.59611   2.58640
C    -0.10827   4.98298   2.26225
H    -0.21749   4.56675   3.26167
H    -0.51482   5.99043   2.25810
H     0.95138   5.03318   2.02018
N     0.30642  -2.82937   1.26883
C    -0.07202  -1.73922   1.23759
C     0.84412  -4.12860   1.23882
C     0.65224  -4.66497  -0.18274
H    -0.40388  -4.69491  -0.44368
H     1.05738  -5.67073  -0.24916
H     1.17287  -4.03348  -0.89979
C     2.33153  -4.01553   1.58413
H     2.83955  -3.36538   0.87480
H     2.78848  -5.00014   1.54238
H     2.46414  -3.60932   2.58466
C     0.09389  -4.98183   2.26341
H     0.20789  -4.56820   3.26337
H     0.49447  -5.99166   2.25640
H    -0.96659  -5.02534   2.02372
O    -1.50375   0.29043  -0.61392
