35

Pt    0.00000   0.00000   0.00000
S     0.86668  -0.52714   2.12398
C    -0.22101  -1.94743   2.28711
C    -0.33588  -2.86650   1.25302
H     0.24069  -2.74525   0.34392
C    -1.19863  -3.93851   1.39835
H    -1.29781  -4.65394   0.59615
C    -1.94145  -4.08526   2.55927
H    -2.61969  -4.91896   2.66262
C    -1.82307  -3.16001   3.58256
H    -2.40647  -3.26933   4.48424
C    -0.95852  -2.08619   3.45122
H    -0.86540  -1.34997   4.23454
C     2.46109  -1.38628   1.94581
H     2.56206  -2.07857   2.77635
H     3.23128  -0.62260   1.99371
H     2.51409  -1.89564   0.98824
Cl   -1.80411   0.83125   1.19060
S    -0.86583   0.52588  -2.12398
C     0.22147   1.94635  -2.28776
C     0.33643   2.86575  -1.25398
H    -0.23896   2.74400  -0.34419
C     1.19763   3.93884  -1.40058
H     1.29676   4.65466  -0.59872
C     1.93888   4.08625  -2.56241
H     2.61571   4.92096  -2.66689
C     1.82082   3.16035  -3.58516
H     2.40321   3.27002  -4.48744
C     0.95779   2.08548  -3.45254
H     0.86484   1.34876  -4.23542
C    -2.46001   1.38592  -1.94761
H    -2.56070   2.07592  -2.78010
H    -3.23057   0.62255  -1.99341
H    -2.51284   1.89807  -0.99157
O     1.28491  -0.59243  -0.84884
