49

Pt    0.00000   0.00000   0.00000
Se   -1.87124   0.91098   1.23501
Se   -0.93677  -0.15972  -2.23560
Cl    2.05455  -0.68577  -0.73931
C    -1.21538   2.70092   1.50151
C    -1.80069   3.49185   2.47992
H    -2.60469   3.09300   3.08386
C    -1.34256   4.78363   2.67388
H    -1.79127   5.40259   3.43666
C    -0.30648   5.27682   1.89752
H     0.05131   6.28331   2.05526
C     0.27989   4.47811   0.92875
H     1.09448   4.85641   0.32979
C    -0.17136   3.18622   0.72968
H     0.30225   2.54506  -0.00959
C    -3.27078   1.32823  -0.04365
C    -3.69858   2.61641  -0.32498
H    -3.25048   3.46215   0.17658
C    -4.70120   2.81498  -1.25956
H    -5.03152   3.81980  -1.47855
C    -5.27759   1.73708  -1.91035
H    -6.05697   1.89968  -2.63952
C    -4.85337   0.44850  -1.62387
H    -5.30163  -0.39516  -2.12670
C    -3.85294   0.24373  -0.69240
H    -3.51650  -0.75967  -0.45413
C    -0.45235   1.65322  -2.68403
C     0.88185   2.04074  -2.64936
H     1.65080   1.31036  -2.43039
C     1.20398   3.36587  -2.88152
H     2.23837   3.67426  -2.85524
C     0.20517   4.29497  -3.13151
H     0.46212   5.33001  -3.30075
C    -1.12152   3.89917  -3.16531
H    -1.89933   4.62144  -3.36353
C    -1.45703   2.57365  -2.94707
H    -2.48853   2.25051  -2.97466
C     0.26619  -1.16460  -3.34885
C     0.73930  -0.65517  -4.54665
H     0.47338   0.34546  -4.85973
C     1.57112  -1.43729  -5.32963
H     1.95588  -1.04104  -6.25781
C     1.41243  -3.22678  -3.73686
H     1.67843  -4.22390  -3.42011
C     0.58382  -2.45390  -2.94641
H     0.20559  -2.83045  -2.00464
C     1.90991  -2.71743  -4.92601
H     2.56476  -3.31931  -5.53811
O     0.52629   0.13696   1.55781
