35

Pd    0.00000   0.00000   0.00000
Cl    1.93545  -0.58882  -1.10708
S     0.83140  -0.43305   2.11550
C    -0.23245  -1.87772   2.24975
C    -0.88193  -2.11913   3.44795
H    -0.73073  -1.45030   4.28120
C    -1.73972  -3.20222   3.55145
H    -2.25669  -3.38716   4.48077
C    -1.93933  -4.03537   2.46464
H    -2.61471  -4.87378   2.54461
C    -1.28154  -3.79105   1.26860
H    -1.44234  -4.43885   0.41992
C    -0.42614  -2.70866   1.14884
H     0.09954  -2.52615   0.20242
C     2.43536  -1.28356   1.99891
H     2.56787  -1.87315   2.90187
H     3.19534  -0.51096   1.93460
H     2.47194  -1.90219   1.10672
S    -0.82949   0.43191  -2.11623
C     0.23295   1.87756  -2.25087
C     0.88393   2.11782  -3.44848
H     0.73464   1.44753  -4.28090
C     1.74064   3.20171  -3.55242
H     2.25862   3.38591  -4.48132
C     1.93761   4.03678  -2.46660
H     2.61192   4.87601  -2.54694
C     1.27858   3.79335  -1.27108
H     1.43735   4.44269  -0.42318
C     0.42432   2.71010  -1.15080
H    -0.10216   2.52810  -0.20475
C    -2.43465   1.28052  -2.00346
H    -2.56705   1.86729  -2.90827
H    -3.19355   0.50700  -1.93754
H    -2.47256   1.90153  -1.11303
O    -1.38495   0.42279   0.79098
