49

Pd    0.00000   0.00000   0.00000
S     0.75385  -0.46350  -2.12957
C    -0.71217   2.92510  -4.77438
H    -1.04770   3.74512  -5.39107
C    -2.63039  -2.68355  -1.90778
H    -3.61748  -2.59503  -1.47908
C     0.11959   0.83228  -3.17978
C    -0.46365  -1.76450  -2.33702
C    -1.73411  -1.63565  -1.77981
H    -2.03725  -0.70842  -1.27604
C    -1.27108   1.66895  -4.93029
H    -2.04003   1.50426  -5.67024
C    -0.09249  -2.91795  -3.00757
H     0.90189  -3.00003  -3.41868
C    -0.99862  -3.95948  -3.12406
H    -0.71094  -4.86271  -3.64034
C     0.69482   2.08686  -3.02457
H     1.44765   2.23482  -2.26151
C    -0.85458   0.61208  -4.13806
H    -1.29390  -0.36685  -4.26161
C    -2.26339  -3.84332  -2.57396
H    -2.96577  -4.65872  -2.65990
C     0.27388   3.13232  -3.82226
H     0.70771   4.11214  -3.69325
S    -0.75562   0.46420   2.12883
Cl   -1.13472   1.95384  -0.50197
C     0.71122  -2.92495   4.77255
H     1.04703  -3.74511   5.38891
C     2.62864   2.68421   1.90660
H     3.61566   2.59576   1.47773
C    -0.12104  -0.83184   3.17856
C     0.46202   1.76507   2.33625
C     1.73233   1.63631   1.77865
H     2.03528   0.70911   1.27470
C     1.26980  -1.66871   4.92886
H     2.03877  -1.50408   5.66881
C     0.09100   2.91843   3.00701
H    -0.90330   3.00043   3.41836
C     0.99710   3.95999   3.12337
H     0.70949   4.86315   3.63980
C    -0.69609  -2.08647   3.02310
H    -1.44890  -2.23437   2.26002
C     0.85308  -0.61170   4.13692
H     1.29213   0.36730   4.26080
C     2.26176   3.84391   2.57298
H     2.96411   4.65935   2.65882
C    -0.27486  -3.13209   3.82045
H    -0.70840  -4.11199   3.69109
O     0.80847  -1.39331   0.35715
