68

I    -1.48912   2.02217  -0.57723
Ni    0.00000   0.00000   0.00000
N    -0.71241  -1.08550  -1.35206
N    -0.58563  -1.41078   1.08566
N     0.54861   0.70075   1.64923
C    -0.72815  -0.81117  -2.64959
H    -0.28608   0.12913  -2.95513
C    -1.27508  -1.66240  -3.59108
H    -1.24471  -1.36007  -4.62303
C    -1.84400  -2.87139  -3.19779
C    -1.82298  -3.14782  -1.83443
H    -2.24334  -4.06261  -1.44801
C    -1.26037  -2.25353  -0.93736
C    -1.19299  -2.44752   0.51086
C    -1.65667  -3.49435   1.29406
H    -2.14921  -4.33190   0.82813
C    -1.48330  -3.45034   2.68074
C    -0.84316  -2.34237   3.23431
H    -0.68877  -2.26077   4.29593
C    -0.39920  -1.32268   2.39969
C     0.28036  -0.07078   2.73078
C     0.63114   0.32994   4.01056
H     0.39412  -0.32498   4.83372
C     1.27197   1.54573   4.22591
C     1.53202   2.31526   3.09441
H     2.02290   3.27021   3.15967
C     1.15935   1.86196   1.84317
H     1.36149   2.46013   0.96325
C    -2.46208  -3.86003  -4.16548
C    -3.93710  -4.06304  -3.78955
H    -4.47044  -3.11541  -3.82683
H    -4.04348  -4.47647  -2.78986
H    -4.40579  -4.74924  -4.49072
C    -1.70448  -5.19171  -4.06072
H    -1.77857  -5.61821  -3.06358
H    -0.65161  -5.04678  -4.29375
H    -2.11746  -5.90815  -4.76664
C    -2.39260  -3.37397  -5.61457
H    -2.93365  -2.43914  -5.74086
H    -2.84931  -4.11568  -6.26587
H    -1.36193  -3.23784  -5.93357
C    -2.00164  -4.59992   3.52648
C    -1.31444  -5.89754   3.07709
H    -0.23510  -5.81350   3.18823
H    -1.53344  -6.13005   2.03835
H    -1.65876  -6.72823   3.68829
C    -3.52013  -4.71333   3.32641
H    -3.77418  -4.92685   2.29146
H    -4.01107  -3.78556   3.61416
H    -3.91505  -5.51655   3.94376
C    -1.72662  -4.40318   5.01942
H    -0.65893  -4.33680   5.21840
H    -2.11484  -5.25625   5.57112
H    -2.22113  -3.51069   5.39729
C     1.64842   1.96909   5.63120
C     2.61411   0.92854   6.21683
H     3.50616   0.85091   5.59869
H     2.15468  -0.05464   6.27953
H     2.91458   1.22630   7.21847
C     2.33141   3.33792   5.66106
H     1.67522   4.11202   5.27014
H     3.25556   3.32792   5.08794
H     2.57782   3.59527   6.68865
C     0.37338   2.04172   6.48392
H    -0.33023   2.75039   6.05201
H     0.62043   2.37221   7.48985
H    -0.11661   1.07422   6.55712
O     1.50197   0.07734  -0.67867
