69

Ir    0.00000   0.00000   0.00000
H    -0.16179   1.19618  -0.91695
P    -2.19234  -0.64176  -0.32542
P     1.92460   0.84563   0.97908
O    -3.01241   0.21595   0.78670
N     1.28399   1.55595   2.36979
H     1.83194   2.17295   2.95406
C    -0.86885   0.97253   1.53466
C    -2.24368   0.90383   1.71912
C    -2.86659   1.48295   2.81497
H    -3.93757   1.41474   2.92366
C    -2.08921   2.14196   3.75235
H    -2.56134   2.60578   4.60491
C    -0.71182   2.19723   3.61871
H    -0.11127   2.69349   4.36835
C    -0.10452   1.60582   2.51801
C    -2.52127  -2.40005   0.27705
C    -3.94239  -2.62940   0.78357
H    -3.97052  -3.54266   1.37806
H    -4.65128  -2.74096  -0.03070
H    -4.26356  -1.80362   1.41541
C    -2.13620  -3.39881  -0.80777
H    -2.87056  -3.41519  -1.60999
H    -2.07655  -4.40274  -0.38760
H    -1.16381  -3.14642  -1.22917
C    -1.54754  -2.53400   1.45299
H    -0.52254  -2.38013   1.11120
H    -1.60285  -3.53209   1.88797
H    -1.77699  -1.80957   2.23631
C    -3.16879  -0.19721  -1.86745
C    -4.60561  -0.70713  -1.85046
H    -4.64696  -1.78479  -1.98709
H    -5.16339  -0.24786  -2.66620
H    -5.09223  -0.44316  -0.91402
C    -2.40123  -0.72921  -3.07432
H    -2.82217  -0.32745  -3.99465
H    -2.44031  -1.81344  -3.12846
H    -1.35610  -0.43073  -3.01157
C    -3.17488   1.33219  -1.90898
H    -3.75827   1.73857  -1.08624
H    -3.60848   1.67817  -2.84554
H    -2.15781   1.71611  -1.83346
C     3.10369  -0.42657   1.72783
C     3.84635   0.05863   2.97097
H     4.51189   0.88903   2.75782
H     4.45045  -0.75912   3.36418
H     3.14467   0.35667   3.74780
C     4.06629  -0.93974   0.66222
H     4.55889  -1.84681   1.01217
H     4.83759  -0.20922   0.42953
H     3.51912  -1.18114  -0.24830
C     2.16435  -1.56703   2.13260
H     2.70657  -2.33631   2.68194
H     1.74494  -2.03125   1.24113
H     1.35805  -1.19884   2.77060
C     2.85952   2.26526   0.14580
C     4.11061   2.73903   0.88040
H     3.89076   2.99861   1.91485
H     4.49476   3.63320   0.38978
H     4.89751   1.98977   0.85977
C     3.20432   1.82084  -1.27414
H     3.97944   1.06025  -1.27805
H     3.55691   2.66908  -1.85895
H     2.32032   1.40798  -1.75823
C     1.85655   3.42031   0.07700
H     2.24956   4.21591  -0.55334
H     1.65813   3.83538   1.06297
H     0.91253   3.07780  -0.34484
O     0.71978  -1.09007  -1.00804
