63

Ir    0.00000   0.00000   0.00000
P    -0.88684  -0.79476  -1.97451
P     1.43589   0.34779   1.76579
O     0.40713  -1.38720  -2.76343
N     2.91487  -0.05572   1.06725
C     1.68587  -0.67843  -0.86958
C     1.62864  -1.30974  -2.10435
C     2.75092  -1.88207  -2.68584
H     2.67266  -2.36437  -3.64742
C     3.95753  -1.81849  -2.00991
H     4.83979  -2.25370  -2.45390
C     4.04483  -1.21625  -0.76501
H     4.98897  -1.18712  -0.23915
C     2.91058  -0.65230  -0.19602
C    -1.58378   0.36531  -3.28052
C    -0.41409   1.26814  -3.67795
H    -0.76494   2.06771  -4.32802
H     0.34823   0.70158  -4.20780
H     0.04011   1.71252  -2.79263
C    -2.66933   1.20941  -2.61918
H    -3.55086   0.61844  -2.38730
H    -2.96801   2.02242  -3.27904
H    -2.29237   1.63542  -1.69028
C    -2.10767  -0.34997  -4.52083
H    -2.31313   0.38181  -5.30183
H    -3.03282  -0.88211  -4.31403
H    -1.36476  -1.05012  -4.89726
C    -1.90331  -2.37015  -1.76998
C    -1.85027  -3.30315  -2.97626
H    -2.46146  -2.94045  -3.79624
H    -2.22527  -4.28534  -2.68835
H    -0.82719  -3.41910  -3.32786
C    -1.22202  -3.05402  -0.57971
H    -1.70172  -4.00683  -0.35540
H    -1.30933  -2.42440   0.30691
H    -0.16761  -3.24629  -0.78770
C    -3.33539  -2.01645  -1.38678
H    -3.34059  -1.27872  -0.58524
H    -3.85715  -2.90622  -1.03479
H    -3.88778  -1.61782  -2.23459
C     1.80623   1.98630   2.55308
H     2.74360   1.89457   3.11727
C     1.99360   3.01151   1.43976
H     2.32815   3.96351   1.84854
H     1.04942   3.16554   0.92097
H     2.72607   2.66326   0.71299
C     0.66031   2.38452   3.47679
H    -0.28804   2.27577   2.95294
H     0.76500   3.42352   3.78428
H     0.63264   1.76714   4.37231
C     1.27707  -0.82256   3.21430
H     0.38002  -0.51210   3.76027
C     2.48095  -0.81382   4.14934
H     3.38456  -1.10658   3.61619
H     2.32383  -1.52912   4.95596
H     2.63769   0.16494   4.59680
C     1.04027  -2.21483   2.63666
H     0.95061  -2.95521   3.43063
H     1.86404  -2.50808   1.98375
H     0.11660  -2.22965   2.05989
H     0.28080   1.37410  -0.57989
H     3.79907   0.03180   1.54813
O    -1.38763   0.16312   0.87771
