64

W     0.00000   0.00000   0.00000
Cl   -2.33949   0.36863  -0.06105
N    -0.00218  -1.75769  -0.00072
N    -0.00121  -3.07289  -0.00034
O     0.13046   0.33693  -1.91903
O    -0.00110   2.20567  -0.00037
C     0.22022  -4.94618  -1.55127
H    -0.61264  -5.44991  -1.08629
C     0.84605  -5.49639  -2.65362
H     0.50329  -6.44446  -3.03880
C     1.89284  -4.83483  -3.27714
H     2.37135  -5.27113  -4.13993
C     2.31781  -3.60829  -2.79135
H     3.13828  -3.09119  -3.26569
C     1.70106  -3.04375  -1.69147
H     2.02717  -2.08612  -1.29440
C     0.65169  -3.71584  -1.06010
C     0.24466  -0.42082  -2.98959
C    -0.60468  -1.52489  -3.17581
F    -1.53405  -1.73033  -2.21837
C    -0.49930  -2.36758  -4.26962
F    -1.31201  -3.41433  -4.40371
C     0.48090  -2.11684  -5.22805
F     0.61076  -2.92777  -6.28024
C     1.32714  -1.01967  -5.08562
F     2.26054  -0.78096  -6.00741
C     1.20431  -0.17993  -3.98623
F     2.01858   0.87521  -3.84484
C     0.86071   3.03822  -0.80162
H     0.87838   2.64060  -1.82278
H     1.87473   2.99414  -0.38274
C     0.28521   4.44691  -0.70801
H     1.04526   5.20785  -0.86363
H    -0.51231   4.58578  -1.43871
C    -0.65378  -3.71599   1.05953
C    -0.22192  -4.94615   1.55080
H     0.61098  -5.44976   1.08577
C    -0.84775  -5.49656   2.65306
H    -0.50488  -6.44462   3.03819
C    -1.89471  -4.83524   3.27654
H    -2.37314  -5.27163   4.13933
C    -2.31993  -3.60879   2.79075
H    -3.14042  -3.09178   3.26516
C    -1.70335  -3.04417   1.69082
H    -2.02951  -2.08650   1.29386
O    -0.13265   0.33706   1.91880
C    -0.24718  -0.42079   2.98923
C     0.60216  -1.52482   3.17556
F     1.53162  -1.73026   2.21824
C     0.49665  -2.36750   4.26935
F     1.30934  -3.41424   4.40357
C    -0.48367  -2.11673   5.22766
F    -0.61364  -2.92762   6.27987
C    -1.32992  -1.01959   5.08509
F    -2.26342  -0.78083   6.00678
C    -1.20700  -0.17990   3.98568
F    -2.02122   0.87528   3.84416
C    -0.28692   4.44694   0.70741
C    -0.86272   3.03836   0.80095
H    -0.88043   2.64072   1.82211
H    -1.87676   2.99455   0.38211
H    -1.04680   5.20804   0.86310
H     0.51064   4.58559   1.43811
O     1.62933   0.25694   0.04201
