34

Pt    0.00000   0.00000   0.00000
Cl   -0.84299   0.09712   2.08307
S     0.91218  -0.11825  -2.08584
O     0.09996  -0.77037  -3.11634
N    -1.63325  -1.07927  -0.60752
H    -1.58087  -2.06502  -0.37821
N    -2.80231   0.49963  -1.83346
N    -2.94390  -1.74054  -2.41616
C    -2.41518  -0.78651  -1.60483
C    -2.60870   1.49550  -0.80247
H    -2.81243   1.05535   0.17299
H    -3.31066   2.31008  -0.98072
H    -1.58734   1.90945  -0.79413
C    -2.81472   1.02397  -3.18344
H    -2.55525   0.24266  -3.89194
H    -2.07069   1.81973  -3.27555
H    -3.79445   1.43946  -3.43189
C    -2.32253  -3.04051  -2.50965
H    -1.24104  -2.92389  -2.45350
H    -2.56850  -3.46969  -3.48029
H    -2.66657  -3.72789  -1.72834
C    -4.26315  -1.63158  -2.99257
H    -4.74992  -0.72829  -2.63684
H    -4.86331  -2.49234  -2.68462
H    -4.22048  -1.61432  -4.08479
C     1.46340   1.47694  -2.76977
H     1.99865   1.29969  -3.69474
H     2.09244   1.93971  -2.01786
H     0.58623   2.08660  -2.95698
C     2.53120  -0.94360  -2.07439
H     2.38309  -1.96741  -1.74707
H     3.15238  -0.40787  -1.36573
H     2.94838  -0.92628  -3.07434
O     1.37069   0.82192   0.41006
