69

Cd    0.00000   0.00000   0.00000
Cl   -1.95593  -1.10003  -0.66601
N     0.66924   1.58896  -1.53959
N     1.75524   3.26167  -2.50721
N     2.41766   5.53021  -2.32619
N     2.45280   6.58909  -3.15712
N     2.17757   7.65210  -2.53748
C    -1.56188   2.01431  -2.61963
H    -2.07122   1.18247  -2.15471
C    -2.18618   2.85840  -3.51592
H    -3.22679   2.70067  -3.75458
C    -1.50602   3.90887  -4.13691
H    -2.03654   4.53715  -4.83632
C    -0.17119   4.16408  -3.88229
H     0.35086   4.97676  -4.36431
C     0.45847   3.32154  -2.97984
C    -0.21862   2.25722  -2.35499
C     1.82192   2.19867  -1.64936
C     3.07176   1.76988  -0.98058
H     3.45116   2.53897  -0.30801
H     3.83958   1.54961  -1.72200
H     2.87464   0.86240  -0.40651
C     2.77775   4.22266  -2.80035
H     3.71589   3.89496  -2.33724
H     2.91878   4.32211  -3.88421
C     2.07330   5.95420  -1.07376
C     1.93283   7.35665  -1.22856
C     1.60889   8.16600  -0.14145
H     1.52084   9.23284  -0.26071
C     1.41120   7.54053   1.06601
H     1.15688   8.12584   1.93632
C     1.51489   6.14973   1.20153
H     1.33566   5.70590   2.16866
C     1.84491   5.32955   0.14591
H     1.91134   4.25971   0.27193
N    -0.66923   1.58896   1.53958
N    -1.75524   3.26167   2.50721
N    -2.41767   5.53020   2.32620
N    -2.45282   6.58908   3.15714
N    -2.17758   7.65210   2.53750
C     1.56189   2.01432   2.61963
H     2.07123   1.18248   2.15470
C     2.18618   2.85840   3.51593
H     3.22679   2.70067   3.75458
C     1.50602   3.90887   4.13692
H     2.03654   4.53714   4.83633
C     0.17119   4.16407   3.88230
H    -0.35086   4.97675   4.36433
C    -0.45847   3.32154   2.97985
C     0.21863   2.25722   2.35499
C    -1.82192   2.19867   1.64936
C    -3.07176   1.76989   0.98058
H    -3.45116   2.53898   0.30801
H    -3.83957   1.54961   1.72199
H    -2.87463   0.86240   0.40651
C    -2.77775   4.22265   2.80037
H    -3.71590   3.89495   2.33725
H    -2.91878   4.32210   3.88422
C    -2.07331   5.95420   1.07378
C    -1.93285   7.35665   1.22858
C    -1.60892   8.16600   0.14146
H    -1.52087   9.23284   0.26073
C    -1.41122   7.54054  -1.06599
H    -1.15689   8.12584  -1.93630
C    -1.51489   6.14973  -1.20151
H    -1.33566   5.70591  -2.16864
C    -1.84491   5.32955  -0.14589
H    -1.91134   4.25971  -0.27192
O     1.37871  -0.77541   0.46948
