53

Nb    0.00000   0.00000   0.00000
Cl    0.11503  -1.27873   1.98864
O     0.45521   0.56421  -2.15266
O     1.17519   0.03401  -4.19854
N    -0.35885  -1.99772  -0.95955
N     0.37831  -2.38012  -2.01676
C    -0.13403  -3.49226  -2.59013
C    -1.24139  -3.83894  -1.84210
H    -1.89218  -4.67255  -2.00863
C    -1.34714  -2.87757  -0.82952
C     0.44504  -4.13213  -3.79744
H     0.45924  -3.43415  -4.63442
H    -0.16062  -4.99079  -4.07250
H     1.46406  -4.47399  -3.61302
C    -2.36149  -2.78114   0.24689
H    -1.87234  -2.75751   1.22184
H    -3.04019  -3.62818   0.19826
H    -2.92652  -1.85320   0.13730
N     2.11338  -0.76417  -0.27595
N     2.45300  -1.39346  -1.41419
C     3.77255  -1.68722  -1.43281
C     4.28644  -1.24155  -0.23084
H     5.30227  -1.31606   0.09876
C     3.21445  -0.67445   0.46668
C     4.44914  -2.35250  -2.57371
H     4.02591  -3.33971  -2.76055
H     5.50459  -2.46899  -2.34552
H     4.35357  -1.75690  -3.48136
C     3.21726  -0.08958   1.83104
H     2.57723   0.79323   1.87413
H     4.23140   0.16718   2.12602
H     2.81539  -0.81609   2.53923
C     1.49698  -1.59964  -2.46432
H     1.98190  -2.11509  -3.29580
C     0.97412  -0.15628  -3.02174
C     0.87726   1.93844   0.35384
C    -0.01627   1.74389   1.26994
C     1.80287   2.93857  -0.22505
H     1.53467   3.94468   0.10224
H     1.75791   2.89137  -1.31430
H     2.82992   2.72784   0.08081
C    -0.67028   2.34401   2.40430
C    -0.11915   3.45885   3.04321
H     0.81101   3.87207   2.68111
C    -0.75749   4.01985   4.13221
H    -0.32704   4.88153   4.62207
C    -1.94797   3.48320   4.59704
H    -2.44429   3.92788   5.44716
C    -2.49862   2.37441   3.97289
H    -3.42436   1.95520   4.33914
C    -1.86432   1.80220   2.88768
H    -2.28156   0.93301   2.39260
O    -1.56181   0.34698  -0.40357
