47

Zn    0.00000   0.00000   0.00000
O    -2.14031   0.93592   5.29570
H    -2.12668   1.75067   5.80668
O     0.66896   0.27956  -1.78258
N    -1.82789  -0.88301  -0.60237
N    -0.84745  -1.01816   1.94375
N     1.39716  -1.45230   0.32368
C    -2.16317  -0.97263  -1.88270
H    -1.41700  -0.62535  -2.58186
C    -3.38470  -1.46921  -2.29997
H    -3.62164  -1.52276  -3.35020
C    -4.28941  -1.89152  -1.33673
H    -5.25329  -2.28761  -1.61978
C    -3.93375  -1.79670  -0.00375
H    -4.61101  -2.11163   0.77544
C    -2.68550  -1.27831   0.32994
C    -2.28779  -1.10113   1.76846
H    -2.71795  -0.15167   2.10403
H    -2.73829  -1.90688   2.36807
C    -0.48875  -0.25265   3.13578
H    -0.99129   0.71202   3.05203
H     0.58317  -0.05212   3.10659
C    -0.85450  -0.88894   4.48439
H    -1.82380  -1.38448   4.42294
H    -0.10519  -1.61808   4.79710
C    -0.96733   0.19598   5.55308
H    -1.02230  -0.26440   6.55171
H    -0.08012   0.84153   5.51792
C    -0.22082  -2.33138   1.88201
H    -0.69992  -2.89414   1.07646
H    -0.34318  -2.89324   2.81834
C     1.26409  -2.19985   1.54455
H     1.77904  -1.66653   2.35135
H     1.71285  -3.19901   1.45691
C     2.31203  -1.78491  -0.51921
H     2.98442  -2.61077  -0.24973
C     2.55446  -1.20009  -1.78574
C     1.71494  -0.18784  -2.35184
C     2.06967   0.29248  -3.64338
H     1.44055   1.06128  -4.06695
C     3.16179  -0.17630  -4.31641
H     3.40483   0.22024  -5.29229
C     3.97488  -1.17021  -3.75584
H     4.83433  -1.53559  -4.29699
C     3.66605  -1.66494  -2.51966
H     4.28755  -2.43065  -2.07342
O    -0.33755   1.50333   0.59039
