25

Pd    0.00000   0.00000   0.00000
N     1.14081   1.49161   0.54865
C     1.14203   2.76287   0.13636
N     2.09824   1.36517   1.46082
N     2.12314   3.37848   0.84822
N     2.68690   2.45352   1.66291
N     0.31772   3.32695  -0.74376
H    -0.08737   2.64533  -1.40767
H     0.57689   4.23801  -1.08792
N     2.48474   4.70365   0.75596
H     3.49477   4.77794   0.65728
H     2.20529   5.21179   1.59387
Cl   -0.16979  -0.70394   2.18264
N    -1.14160  -1.49089  -0.54904
C    -1.14176  -2.76306  -0.13958
N    -2.10081  -1.36257  -1.45898
N    -2.12414  -3.37725  -0.85084
N    -2.68960  -2.45059  -1.66242
N    -0.31550  -3.32892   0.73756
H     0.09088  -2.64860   1.40192
H    -0.57336  -4.24089   1.08025
N    -2.48509  -4.70272  -0.76115
H    -3.49514  -4.77755  -0.66235
H    -2.20570  -5.20926  -1.60026
O     0.12600   0.50176  -1.56680
