57

C    -0.93570   0.93640   1.47253
C    -1.48932   2.34169  -0.33748
C    -2.02420   3.42400  -1.00392
H    -2.59269   4.17459  -0.47941
C    -1.80216   3.52032  -2.37798
H    -2.20499   4.35617  -2.92713
C    -1.06335   2.54775  -3.02890
H    -0.88467   2.62429  -4.08884
C    -0.54947   1.47452  -2.30371
C     0.24041   0.36612  -2.80194
C     0.56923   0.18466  -4.14659
H     0.23715   0.90280  -4.87916
C     1.31118  -0.91334  -4.52688
H     1.57177  -1.06929  -5.56259
C     1.71155  -1.81522  -3.54593
H     2.29227  -2.68826  -3.79600
C     1.35785  -1.57775  -2.23259
H     1.66620  -2.25792  -1.44981
C    -0.75307  -0.14606   3.64448
C     0.43590   0.06304   4.34491
C     0.93615  -0.99136   5.09447
H     1.86533  -0.87839   5.62816
C     0.26863  -2.20001   5.14395
H     0.68479  -3.01741   5.71315
C    -0.92254  -2.37398   4.46726
H    -1.42531  -3.32597   4.51658
C    -1.46222  -1.34583   3.70756
C    -2.75839  -1.52336   2.94873
H    -3.18262  -0.53400   2.74020
C     1.16583   1.38322   4.23963
H     0.43462   2.17219   4.02525
C     1.87864   1.76400   5.53828
H     2.21497   2.79744   5.48289
H     2.75116   1.13817   5.70367
H     1.20907   1.66438   6.39044
C     2.16605   1.32860   3.08103
H     2.72916   2.25817   3.02461
H     1.65152   1.17524   2.12883
H     2.85700   0.50150   3.22181
C    -3.79550  -2.30148   3.76150
H    -4.76501  -2.24696   3.27058
H    -3.89130  -1.88548   4.76248
H    -3.52226  -3.34950   3.84524
C    -2.49698  -2.22323   1.61191
H    -3.43644  -2.42050   1.09922
H    -1.97560  -3.16294   1.77479
H    -1.87011  -1.59745   0.96135
C    -2.25803   2.67790   2.04040
H    -2.83163   3.57189   1.91023
C    -2.02948   1.93404   3.14738
H    -2.37106   2.06300   4.15440
N    -1.22796   0.88135   2.78401
N    -1.58621   2.05977   1.01470
N    -0.77339   1.38862  -0.97045
N     0.64326  -0.52005  -1.84726
Rh    0.00000   0.00000   0.00000
O     0.81379  -1.17791   0.82023
