23

Mo    0.00000   0.00000   0.00000
Br    2.43700  -0.32255   0.43021
O    -0.46012  -1.55355   0.22160
O    -0.31168   0.97140   1.27810
N     0.75029  -0.58461  -2.09625
N     1.78233   0.10908  -4.10484
N     0.88867   1.82120  -1.09127
N     1.90490   2.66659  -3.04916
C     1.31137   0.33658  -2.89654
C     0.66131  -1.82556  -2.56482
C     1.13144  -2.15245  -3.82747
C     1.69733  -1.12295  -4.57204
C     1.38325   1.69240  -2.33334
C     0.93104   3.03074  -0.54108
C     1.46357   4.11291  -1.22467
C     1.94727   3.86922  -2.50580
H     0.20406  -2.55371  -1.90221
H     1.05810  -3.15859  -4.20419
H     2.09420  -1.27757  -5.56584
H     0.52639   3.11220   0.46290
H     1.49630   5.09168  -0.77689
H     2.38043   4.64741  -3.11885
O    -1.27560   0.46634  -0.93694
