67

Fe    0.00000   0.00000   0.00000
S     0.82485  -1.79236   1.30353
N     1.14170  -0.00806   3.30865
N     2.96812  -0.32083   2.10906
C     1.65854  -0.65542   2.24637
C     2.14664   0.75283   3.84296
C     3.26636   0.56691   3.11340
C     3.84694  -0.69588   0.99413
C     4.06937  -2.21085   1.01213
C     3.20736  -0.23857  -0.32374
C     5.19788   0.00574   1.14398
B    -0.31454   0.22241   3.77048
H    -0.32415   0.23850   4.96196
H     1.97592   1.37381   4.69714
H     4.23339   0.99959   3.24366
H     4.53636  -2.51246   1.94790
H     4.71931  -2.49495   0.18926
H     3.12804  -2.74284   0.90796
H     2.31686  -0.82819  -0.56225
H     3.91171  -0.36375  -1.14126
H     2.92992   0.81494  -0.26334
H     5.08344   1.08655   1.10896
H     5.83798  -0.29201   0.31766
H     5.69220  -0.28055   2.06975
S    -2.09514   0.07626   0.90769
S     0.71723   1.98717   1.06295
N    -1.26620  -0.89823   3.30283
N    -0.81128   1.59899   3.27141
N    -1.28469   3.44805   2.17232
N    -2.51482  -2.30364   2.15288
C    -1.94101  -1.07566   2.15030
C    -0.49904   2.34293   2.19167
C    -1.82680   2.23950   3.92499
C    -1.41097  -2.04325   4.03483
C    -2.11919   3.37618   3.25760
C    -2.17661  -2.90894   3.33610
C    -1.31178   4.49116   1.13744
C    -3.23677  -2.93269   1.03778
C     0.05330   5.18171   1.08662
C    -4.49203  -2.11632   0.72034
C    -1.66340   3.84622  -0.20464
C    -2.29917  -3.01867  -0.17139
C    -2.37791   5.53337   1.47919
C    -3.65849  -4.35009   1.42956
H    -2.25816   1.83132   4.81474
H    -0.95037  -2.15030   4.99421
H    -2.85151   4.11883   3.48460
H    -2.49391  -3.89249   3.60343
H     0.28711   5.63251   2.04951
H    -5.13650  -2.05929   1.59559
H     0.03937   5.95983   0.32905
H    -5.04084  -2.59148  -0.08770
H     0.83386   4.47061   0.83455
H    -4.23198  -1.10818   0.41256
H    -0.86894   3.18859  -0.54212
H    -2.03519  -2.02820  -0.54178
H    -1.80982   4.61352  -0.95879
H    -2.78504  -3.56040  -0.97763
H    -2.57598   3.26026  -0.11679
H    -1.38162  -3.53764   0.10115
H    -3.37117   5.09093   1.49446
H    -2.79358  -4.97767   1.63137
H    -2.36637   6.30142   0.71042
H    -4.20452  -4.79009   0.59925
H    -2.17526   6.01315   2.43455
H    -4.31577  -4.34281   2.29642
O    -0.20080   0.38097  -1.59281
