47

Ni    0.00000   0.00000   0.00000
S    -1.59863  -1.58520   1.02798
N    -1.86524  -2.43753  -1.50687
N    -2.31603  -4.00361  -0.05377
C    -1.92643  -2.70894  -0.19318
C    -2.21063  -3.54902  -2.21428
C    -2.49374  -4.52160  -1.31834
C    -2.51142  -4.71633   1.21321
C    -3.60960  -4.01119   2.01183
C    -1.18778  -4.71528   1.98233
C    -2.93598  -6.16057   0.94428
H    -1.58825  -1.49588  -1.85332
H    -2.22579  -3.56329  -3.28335
H    -2.80654  -5.52712  -1.49404
H    -3.78142  -4.53711   2.94616
H    -3.31812  -2.99005   2.23611
H    -4.53719  -3.99421   1.44430
H    -1.30586  -5.25059   2.91939
H    -0.40846  -5.20084   1.39847
H    -0.88003  -3.69748   2.20046
H    -3.88233  -6.20126   0.41067
H    -2.17788  -6.69988   0.38084
H    -3.06778  -6.66615   1.89703
Cl   -0.97898   0.37847  -1.75631
S     1.59870  -1.58582  -1.02979
N     1.86648  -2.43797   1.50486
N     2.31764  -4.00405   0.05189
C     1.92751  -2.70952   0.19125
C     2.21248  -3.54916   2.21236
C     2.49581  -4.52177   1.31651
C     2.51319  -4.71696  -1.21495
C     3.61123  -4.01170  -2.01363
C     1.18963  -4.71623  -1.98419
C     2.93793  -6.16111  -0.94572
H     1.58920  -1.49611   1.85134
H     2.22783  -3.56317   3.28142
H     2.80912  -5.52712   1.49231
H     3.78305  -4.53763  -2.94797
H     3.31958  -2.99057  -2.23787
H     4.53886  -3.99463  -1.44618
H     1.30790  -5.25174  -2.92111
H     0.41032  -5.20178  -1.40031
H     0.88178  -3.69850  -2.20257
H     3.88432  -6.20154  -0.41216
H     2.17992  -6.70030  -0.38205
H     3.06971  -6.66695  -1.89832
O     0.78917   0.30408   1.41677
