68

W     0.00000   0.00000   0.00000
P     1.34820  -0.24990  -2.03015
P    -1.82450  -0.31206   1.59461
Cl    0.29414  -2.38891   0.14952
O    -0.89639   2.92178  -0.71436
N     1.25969   0.50892   1.14255
C    -0.53138   1.86800  -0.40965
C     2.07114   1.17912   2.06984
C     1.30516   2.37980   2.56620
C     0.85212   2.51148   3.79872
C     0.92078  -1.64171  -3.13371
C    -2.78066  -1.86418   1.44621
C     1.38202   1.21556  -3.10548
C     0.90471   1.26120  -4.40785
C     0.93282   2.45586  -5.10968
C     1.43597   3.60156  -4.51955
C     1.90703   3.56216  -3.21478
C     1.87176   2.37700  -2.50929
C     3.12559  -0.54633  -1.76342
C     3.54729  -1.02373  -0.52843
C     4.88848  -1.28801  -0.31164
C     5.81000  -1.07394  -1.32347
C     5.39150  -0.59644  -2.55560
C     4.05250  -0.33390  -2.77869
C    -1.29346  -0.40786   3.33255
C    -2.02566   0.11276   4.39163
C    -1.55514  -0.02262   5.68625
C    -0.36317  -0.68478   5.92906
C     0.36292  -1.21676   4.87462
C    -0.09799  -1.07631   3.57861
C    -3.07166   1.00645   1.59755
C    -2.62655   2.26876   1.98999
C    -3.48448   3.34934   1.96123
C    -4.78990   3.18365   1.52074
C    -5.22977   1.93736   1.11129
C    -4.37577   0.84693   1.14842
H     3.01209   1.50154   1.59030
H     2.32339   0.51888   2.91539
H     1.08332   3.11250   1.80009
H     1.05277   1.77607   4.56047
H     0.26875   3.36447   4.10322
H     1.58971  -1.66829  -3.99504
H     1.02426  -2.56235  -2.55577
H    -0.11907  -1.54238  -3.44937
H    -3.58182  -1.89231   2.18639
H    -3.18162  -1.94187   0.43419
H    -2.09069  -2.69399   1.61089
H     0.50235   0.37462  -4.87516
H     0.55590   2.49048  -6.12161
H     1.45388   4.52958  -5.07156
H     2.29065   4.45895  -2.75104
H     2.21423   2.32630  -1.48005
H     2.81320  -1.18533   0.25374
H     5.21614  -1.66140   0.64741
H     6.85693  -1.27810  -1.15335
H     6.11131  -0.42918  -3.34363
H     3.72302   0.04559  -3.73684
H    -2.95696   0.62841   4.20286
H    -2.12182   0.38875   6.50887
H     0.00007  -0.78657   6.94137
H     1.28969  -1.73802   5.06626
H     0.46183  -1.47941   2.74152
H    -1.59745   2.37910   2.31337
H    -3.13773   4.32423   2.27120
H    -5.46010   4.02996   1.48884
H    -6.24228   1.81166   0.75605
H    -4.72559  -0.11908   0.81633
O    -1.24744  -0.23147  -1.05490
