41

Pt    0.00000   0.00000   0.00000
P    -1.58205   1.16916   1.10546
O    -1.22471   0.94753  -2.53575
C    -0.47749   0.28317  -1.88627
C     1.51230  -0.84465  -1.32198
C     0.63518  -0.66542  -2.52674
C    -0.14904  -1.90857  -2.59712
C     0.05114  -2.62030  -1.45907
C     1.07314  -1.98625  -0.66928
C    -1.00300   2.49682   2.21648
C    -2.85650   2.01305   0.12258
C    -4.20124   1.67157   0.17273
C    -5.11174   2.34375  -0.62410
C    -4.68408   3.34831  -1.47555
C    -3.34060   3.68437  -1.53508
C    -2.42898   3.01655  -0.74148
C    -2.48362  -0.01872   2.13411
C    -3.14185   0.31375   3.31120
C    -3.79409  -0.67046   4.03401
C    -3.79507  -1.98139   3.58707
C    -3.14144  -2.31654   2.41119
C    -2.48752  -1.33782   1.68849
H     2.44222  -0.31164  -1.16125
H     1.03942  -0.24404  -3.44118
H    -0.86313  -2.10999  -3.37413
H    -0.41985  -3.55190  -1.19881
H     1.53411  -2.43385   0.20073
H    -1.85157   3.02390   2.65213
H    -0.38260   2.04869   2.99111
H    -0.40053   3.19856   1.64000
H    -4.53275   0.88167   0.83216
H    -6.15800   2.07790  -0.58375
H    -5.39753   3.86532  -2.10007
H    -3.00604   4.45971  -2.20789
H    -1.37485   3.25537  -0.79288
H    -3.14191   1.33346   3.66731
H    -4.29954  -0.41394   4.95355
H    -4.30033  -2.74505   4.15954
H    -3.13732  -3.34014   2.06717
H    -1.95358  -1.57824   0.76738
O     0.60617  -0.19458   1.52223
