29

Cd    0.00000   0.00000   0.00000
I     0.97955  -2.14721  -1.26620
N    -2.35414   0.08141  -0.27132
C    -3.16250   0.93031   0.38118
C    -4.54583   0.96718   0.12583
C    -5.07901   0.10968  -0.80469
C    -4.23437  -0.77672  -1.47097
C    -2.89146  -0.74936  -1.17036
N    -2.61637   1.70997   1.34656
H    -1.61246   1.83287   1.35723
H    -3.15951   2.47968   1.69837
N     0.18744  -0.75719   2.27811
C     1.40862  -1.14896   2.67586
C     1.58131  -2.13278   3.66770
C     0.47342  -2.69727   4.24792
C    -0.79309  -2.27205   3.84693
C    -0.87720  -1.31303   2.86404
N     2.47677  -0.58785   2.06408
H    -5.16261   1.66887   0.66558
H    -6.13721   0.12345  -1.01770
H    -4.61480  -1.46582  -2.20608
H    -2.20192  -1.42196  -1.66826
H     2.57929  -2.43023   3.94859
H     0.58012  -3.45631   5.00782
H    -1.68549  -2.68592   4.28616
H    -1.84091  -0.95142   2.52056
H     2.35801   0.25697   1.52229
H     3.39966  -0.79695   2.40087
O     0.56296   1.54575   0.12739
