15

Au    0.00000   0.00000   0.00000
P     2.22590  -0.19765   0.22706
C     3.05844  -1.21043  -1.03999
C     2.79781  -0.95372   1.78461
C     3.16285   1.36546   0.17155
H     2.63475  -2.21407  -1.02269
H     4.13220  -1.25965  -0.85388
H     2.87303  -0.77047  -2.01942
H     2.37590  -1.95490   1.86569
H     2.43777  -0.35463   2.62041
H     3.88697  -1.00863   1.81145
H     2.97237   1.85589  -0.78243
H     4.23199   1.18176   0.28560
H     2.81217   2.01453   0.97320
O    -1.63463   0.14671  -0.17022
