45

Ta    0.00000   0.00000   0.00000
Cl    1.99147  -0.14150  -1.26129
Cl    0.58682  -1.80690   1.31124
Si   -3.76527  -0.53771  -0.89731
N     1.63969   1.16146   1.56517
N    -1.50755   0.48011   1.66533
C    -4.52682  -1.79053   0.33078
C    -4.23407   1.24865  -0.40766
C    -4.39333  -0.91890  -2.66211
C    -1.89659  -0.68206  -0.90592
C    -0.95518  -1.09641  -1.66694
C    -0.58898  -1.80882  -2.90175
C     2.48776   2.04918   1.06061
C     3.49454   2.63363   1.81179
C     3.62410   2.27726   3.14411
C     2.73457   1.35288   3.67102
C     1.76080   0.82174   2.84329
C    -1.80545   1.73890   2.00215
C    -2.58940   2.07064   3.08956
C    -3.10568   1.05809   3.88640
C    -2.80490  -0.25173   3.53871
C    -2.01568  -0.49103   2.43118
H    -4.39890  -1.46891   1.35965
H    -5.59135  -1.90476   0.15066
H    -4.07064  -2.77063   0.23243
H    -4.31958   1.35746   0.66942
H    -3.47610   1.94822  -0.74762
H    -5.18191   1.54850  -0.84400
H    -5.46981  -0.79164  -2.72587
H    -3.93886  -0.25791  -3.39329
H    -4.16650  -1.94012  -2.95123
H    -0.26534  -2.82041  -2.65412
H    -1.43513  -1.85931  -3.58626
H     0.24619  -1.30044  -3.38305
H     2.35396   2.29429   0.01602
H     4.16318   3.34619   1.35599
H     4.40182   2.70615   3.75833
H     2.79749   1.04178   4.70181
H     1.05649   0.08546   3.20840
H    -1.39953   2.50181   1.35429
H    -2.79382   3.10744   3.30519
H    -3.72305   1.28058   4.74274
H    -3.18207  -1.08084   4.11648
H    -1.76786  -1.49808   2.13158
O    -0.20245   1.55130  -0.52440
