47

W     0.00000   0.00000   0.00000
Cl    1.64773   0.01936   1.66762
N     1.07948   1.42698  -0.98675
N    -0.67930   1.70882   0.88168
N    -1.73864  -0.09956  -1.05450
N    -1.05337  -1.40673   1.04913
C     1.96366   1.30013  -1.99895
H     2.01733   0.31891  -2.45832
C     2.77317   2.32128  -2.44330
H     3.46403   2.12974  -3.24918
C     2.70822   3.58699  -1.85988
H     3.34346   4.39056  -2.19787
C     1.79539   3.78641  -0.83165
C     1.59805   5.03064  -0.15827
H     2.21824   5.86403  -0.45501
C     0.66675   5.17650   0.81374
H     0.52797   6.12774   1.30632
C    -0.16647   4.08909   1.21576
C    -1.16762   4.16995   2.17710
H    -1.36220   5.09822   2.69069
C    -1.91401   3.02471   2.45963
H    -2.69683   3.05592   3.20085
C    -1.64647   1.84141   1.80753
H    -2.21288   0.94220   2.03250
C     0.04239   2.83829   0.58247
C     1.00157   2.68420  -0.42251
C    -2.06359   0.59631  -2.16046
H    -1.34548   1.34978  -2.47249
C    -3.21949   0.38086  -2.87779
H    -3.41028   0.96776  -3.76216
C    -4.13420  -0.59180  -2.47023
H    -5.04331  -0.76443  -3.02434
C    -3.84434  -1.33881  -1.33372
C    -4.67613  -2.36763  -0.79765
H    -5.60200  -2.58632  -1.30916
C    -4.32406  -3.05251   0.31646
H    -4.96489  -3.82816   0.71005
C    -3.10374  -2.78803   1.00995
C    -2.68832  -3.45677   2.15504
H    -3.28890  -4.24240   2.58520
C    -1.47314  -3.08082   2.72755
H    -1.11709  -3.57443   3.61807
C    -0.70952  -2.08154   2.16712
H     0.23216  -1.79401   2.62154
C    -2.25944  -1.77520   0.48797
C    -2.63101  -1.06386  -0.65541
O     0.56332  -1.15731  -1.03238
