53

Rh    0.00000   0.00000   0.00000
Cl   -1.36553   1.32036  -1.31919
C     1.09105  -1.01926   1.08231
O     1.81391  -1.61970   1.73074
C    -1.02591   0.89637   1.60153
I    -1.06333  -0.18571   3.48767
P    -1.72314  -1.59394  -0.19903
C    -3.36676  -1.26476   0.58143
C    -4.20664  -0.18430  -0.09092
C    -1.35258  -3.22202   0.59204
C    -0.21280  -3.99383  -0.05949
C    -2.18246  -2.00417  -1.93312
C    -3.27659  -3.05183  -2.09774
P     1.66142   1.67931  -0.12389
C     1.58136   2.72614  -1.64013
C     0.73065   3.98453  -1.51403
C     1.75928   2.91675   1.24285
C     2.12974   2.29234   2.58384
C     3.40177   1.04760  -0.18175
C     4.50437   2.09042  -0.03717
H    -0.61775   1.87197   1.85875
H    -2.07467   1.03555   1.34602
H    -3.20107  -1.02004   1.63342
H    -3.90378  -2.21880   0.56190
H    -5.09372   0.01676   0.50798
H    -4.52922  -0.49688  -1.08118
H    -3.65340   0.74446  -0.20652
H    -2.26990  -3.81741   0.56322
H    -1.12245  -3.02376   1.64474
H    -0.06266  -4.93817   0.46040
H     0.72136  -3.43911  -0.01882
H    -0.42842  -4.20896  -1.10368
H    -1.27664  -2.34459  -2.43971
H    -2.47554  -1.05798  -2.39973
H    -3.44049  -3.21828  -3.16084
H    -4.22119  -2.73626  -1.66215
H    -2.98771  -4.00207  -1.65444
H     1.17506   2.09394  -2.43549
H     2.60856   2.98548  -1.91357
H     0.66372   4.46906  -2.48619
H     1.16031   4.69473  -0.81075
H    -0.27897   3.73615  -1.19499
H     0.79075   3.42146   1.30791
H     2.50005   3.66624   0.94994
H     2.03204   3.02683   3.38147
H     3.15511   1.93053   2.58248
H     1.48631   1.44800   2.82331
H     3.51290   0.54265  -1.14503
H     3.50771   0.28721   0.59852
H     5.46148   1.61743  -0.24875
H     4.55343   2.50150   0.96769
H     4.38041   2.91131  -0.74006
O     0.78868  -0.65658  -1.29205
