63

Ni    0.00000   0.00000   0.00000
P    -0.05643  -1.38469   1.59986
N    -1.79113  -0.32356  -0.16272
N    -0.82014   1.07628  -1.47821
C    -2.51680  -1.26775   0.48860
C    -1.78932  -1.95048   1.49338
C    -2.36784  -2.96472   2.23420
H    -1.78861  -3.48329   2.98507
C    -3.68808  -3.31118   1.99770
H    -4.15250  -4.09847   2.57144
C    -4.40811  -2.65353   1.00896
H    -5.43267  -2.93904   0.81904
C    -3.84344  -1.64622   0.25187
H    -4.41616  -1.16470  -0.52554
C    -1.99198   0.56749  -1.14161
C    -3.29692   0.88927  -1.75388
C    -3.47881   0.73686  -3.12508
H    -2.66153   0.37936  -3.73432
C    -4.70012   1.04109  -3.69727
H    -4.83855   0.91834  -4.76111
C    -5.74177   1.50543  -2.91071
H    -6.69290   1.74733  -3.36127
C    -5.56340   1.66210  -1.54583
H    -6.37316   2.02708  -0.93125
C    -4.34752   1.35136  -0.96526
H    -4.20155   1.47683   0.09866
C    -0.57989   2.11669  -2.35719
C     0.64386   2.12639  -3.02988
H     1.34825   1.33156  -2.83021
C     0.94652   3.13605  -3.91896
H     1.89650   3.12303  -4.43393
C     0.05178   4.17288  -4.15420
C    -1.15080   4.17828  -3.45558
H    -1.84812   4.99082  -3.60667
C    -1.46974   3.17382  -2.56548
H    -2.39747   3.22117  -2.01459
C     0.37026   5.27643  -5.11713
H     1.33605   5.11396  -5.58881
H     0.39352   6.23598  -4.60117
H    -0.39162   5.33611  -5.89401
C     0.24387  -0.88352   3.31437
C    -0.78098  -0.69465   4.23370
H    -1.80724  -0.87056   3.94226
C    -0.47827  -0.28346   5.52031
H    -1.27246  -0.14200   6.23893
C     0.83709  -0.04839   5.88525
H     1.06662   0.27411   6.89010
C     1.85800  -0.21445   4.96084
H     2.88090  -0.01626   5.24370
C     1.56550  -0.62594   3.67516
H     2.34480  -0.73938   2.93331
C     0.92328  -2.90305   1.42468
C     1.15869  -3.77096   2.48458
H     0.80129  -3.52650   3.47520
C     1.86854  -4.93764   2.26522
H     2.05677  -5.61369   3.08652
C     2.34276  -5.23864   0.99817
H     2.89980  -6.14955   0.83608
C     2.11321  -4.37103  -0.05783
H     2.49288  -4.60283  -1.04165
C     1.40340  -3.20431   0.15474
H     1.22751  -2.49654  -0.65092
O     1.60833   0.36246   0.06629
