69

Zr    0.00000   0.00000   0.00000
P     0.21512  -1.57832  -2.45939
C    -0.26928  -0.46173  -3.83865
C     0.01377  -0.65731  -5.18569
H     0.53198  -1.54770  -5.51111
C    -0.38136   0.28433  -6.12114
H    -0.15689   0.12311  -7.16557
C    -1.05917   1.42471  -5.72700
H    -1.36085   2.15692  -6.46087
C    -1.34950   1.62351  -4.38566
H    -1.88144   2.51050  -4.07287
C    -0.95351   0.68871  -3.44872
H    -1.17561   0.83448  -2.38815
C     0.85835  -3.05187  -3.32373
C     2.02872  -2.88185  -4.06504
H     2.45870  -1.89184  -4.14939
C     2.63822  -3.96405  -4.66990
H     3.53609  -3.82140  -5.25372
C     2.10375  -5.23394  -4.51610
H     2.57732  -6.08088  -4.99018
C     0.97514  -5.41683  -3.73516
H     0.57232  -6.40889  -3.59152
C     0.35951  -4.33534  -3.12965
H    -0.50906  -4.49221  -2.50802
C    -1.47173  -1.97285  -1.84796
C    -2.39206  -2.91424  -2.50268
C    -2.51698  -2.95672  -3.88953
H    -1.92949  -2.28381  -4.49652
C    -3.39411  -3.83978  -4.48983
H    -3.48249  -3.85640  -5.56649
C    -4.15641  -4.70054  -3.71799
H    -4.83997  -5.39151  -4.18876
C    -4.03357  -4.67379  -2.33855
H    -4.61994  -5.34668  -1.72979
C    -3.15904  -3.79130  -1.73470
H    -3.05664  -3.78407  -0.65926
C    -1.72937  -1.21824  -0.75101
C    -3.09044  -1.18712  -0.19627
C    -4.15997  -0.75917  -0.98971
H    -3.97054  -0.48309  -2.01924
C    -5.43898  -0.68691  -0.47377
H    -6.25162  -0.35163  -1.10186
C    -5.68439  -1.05105   0.84014
H    -6.68569  -1.00090   1.24070
C    -4.63623  -1.48195   1.63726
H    -4.82254  -1.77139   2.66187
C    -3.35120  -1.53900   1.13156
H    -2.53760  -1.87986   1.76128
C     0.38914  -1.22243   2.11529
H    -0.22443  -1.06719   2.99565
C     1.59485  -0.54017   1.80933
H     2.06426   0.23322   2.40842
C     2.19153  -1.19076   0.70977
H     3.16234  -0.96259   0.29012
C     1.36391  -2.26004   0.32880
H     1.60684  -3.01936  -0.40377
C     0.24672  -2.27984   1.18951
H    -0.49392  -3.06809   1.22680
C    -0.47402   1.69865   1.89729
H    -0.13292   1.61857   2.92142
C     0.17091   2.41301   0.87001
H     1.11286   2.94124   0.95195
C    -0.69035   2.44598  -0.24524
H    -0.51852   3.01133  -1.15324
C    -1.85797   1.72454   0.08117
H    -2.76902   1.68472  -0.50557
C    -1.72014   1.25844   1.41188
H    -2.50313   0.79713   1.99855
O     1.14853   0.66178  -0.98256
