53

Pd    0.00000   0.00000   0.00000
Cl    1.44387  -0.13007   1.70759
N    -0.99846   1.66050   0.87342
H    -0.30370   2.39753   0.74255
N    -1.32042   0.39862  -1.61806
H    -2.06379  -0.28094  -1.45087
C    -2.18776   1.97826   0.06195
H    -2.98796   1.29107   0.35664
C    -1.87031   1.75393  -1.43143
H    -1.10355   2.47368  -1.73686
C    -2.65878   3.40808   0.33671
H    -2.75284   3.56008   1.41037
H    -3.62991   3.59209  -0.11296
H    -1.95074   4.13313  -0.06181
C    -3.10371   1.95882  -2.31416
H    -2.87513   1.65583  -3.33429
H    -3.40044   3.00317  -2.33407
H    -3.94354   1.36792  -1.95160
C    -1.23407   1.52562   2.28319
C    -0.69139   2.48357   3.15036
C    -0.95557   2.39592   4.50838
H    -0.53759   3.13358   5.17679
C    -1.73674   1.37419   5.01270
H    -1.94576   1.32052   6.07013
C    -2.21087   0.39728   4.16062
H    -2.77267  -0.43334   4.56178
C    -1.96043   0.44135   2.79453
C     0.22603   3.56141   2.64532
H     1.10740   3.10879   2.18705
H     0.56469   4.17461   3.47600
H    -0.25847   4.21976   1.92310
C    -2.40074  -0.72644   1.95545
H    -3.27275  -0.49975   1.33865
H    -2.66940  -1.55498   2.60612
H    -1.56485  -1.06893   1.30557
C    -0.76423   0.12660  -2.91239
C     0.41252   0.75388  -3.34257
C     0.87229   0.48849  -4.62679
H     1.77732   0.97004  -4.96673
C     0.21382  -0.39179  -5.46140
H     0.58869  -0.58140  -6.45535
C    -0.90322  -1.06105  -4.99978
H    -1.39314  -1.78866  -5.62906
C    -1.40132  -0.81721  -3.72963
C    -2.57362  -1.61456  -3.23037
H    -2.27796  -2.19991  -2.35769
H    -2.89855  -2.31076  -3.99862
H    -3.42648  -0.98543  -2.97157
C     1.25240   1.63110  -2.45609
H     0.85712   2.64590  -2.37639
H     2.25462   1.70418  -2.87123
H     1.34294   1.18650  -1.44029
O     0.57755  -1.37339  -0.70904
