67

C     2.70556  -0.72554   0.50357
C     2.85021  -0.52343  -0.88738
C     4.09162  -0.42455  -1.49092
H     4.15449  -0.26345  -2.55882
C     5.23611  -0.52013  -0.72024
H     6.21088  -0.45187  -1.17847
C     5.11608  -0.66346   0.65660
H     6.00731  -0.68657   1.26782
C     3.88387  -0.75813   1.26768
H     3.82338  -0.81763   2.34426
C     1.14511  -1.39742   2.20823
C    -0.04822  -1.02012   2.86542
C    -0.41738  -1.59343   4.07007
H    -1.33421  -1.29353   4.55741
C     0.38024  -2.56608   4.64765
H     0.09736  -3.01420   5.58802
C     1.52457  -2.98849   3.98530
H     2.12221  -3.78421   4.40706
C     1.90603  -2.42572   2.78584
H     2.77233  -2.80728   2.26638
C     1.57692   1.09488  -2.85128
C     1.42521   2.38172  -2.34549
H     1.06291   2.50816  -1.33083
C     1.71246   3.47796  -3.13561
H     1.58878   4.47632  -2.74268
C     2.15355   3.29259  -4.43624
H     2.37558   4.14756  -5.05782
C     2.30451   2.01239  -4.94374
H     2.64577   1.87038  -5.95907
C     2.01849   0.91144  -4.15637
H     2.13054  -0.08724  -4.55545
C     1.01925  -1.69344  -2.83407
C    -0.09589  -1.66741  -3.66996
H    -0.76233  -0.81524  -3.63507
C    -0.34032  -2.72498  -4.52447
H    -1.20174  -2.70444  -5.17576
C     0.51854  -3.81386  -4.54274
H     0.32791  -4.63973  -5.21238
C     1.61649  -3.84881  -3.69891
H     2.27952  -4.70188  -3.70961
C     1.86693  -2.79429  -2.83827
H     2.71922  -2.81844  -2.17323
C    -2.77721  -0.33046   2.13492
H    -2.94078  -0.50057   3.20593
C    -2.95739  -1.64348   1.37622
H    -3.98101  -2.00360   1.46083
H    -2.28567  -2.40875   1.76579
H    -2.73120  -1.49007   0.31947
C    -3.73665   0.73987   1.62652
H    -3.50569   0.98796   0.59235
H    -3.67543   1.64514   2.22697
H    -4.76004   0.37076   1.67273
C    -0.79845   1.81617   2.73279
H    -1.45739   2.51220   2.19934
C     0.65136   2.24047   2.50574
H     0.81757   3.26272   2.84091
H     0.89646   2.17920   1.43996
H     1.32947   1.58238   3.04799
C    -1.15245   1.79384   4.21350
H    -0.50693   1.09939   4.74787
H    -2.18823   1.50067   4.37007
H    -1.01327   2.78577   4.64132
N     1.43664  -0.79335   1.01354
Ni    0.00000   0.00000   0.00000
P    -1.00991   0.16970   1.89270
P     1.25981  -0.28605  -1.71632
O    -1.20964   0.68276  -0.89057
