46

Zn    0.00000   0.00000   0.00000
Cl    1.42070   1.00386   1.31934
N     0.65706  -1.78663  -0.79229
N     0.52472  -2.02927  -2.09794
N     0.10982   1.05289  -1.98192
H    -0.86118   1.37027  -1.98443
C     1.51915  -2.88624  -4.92123
H     1.67526  -1.82417  -4.80534
C     1.58819  -3.45360  -6.18079
H     1.77022  -2.82566  -7.04018
C     1.43084  -4.81980  -6.34084
H     1.48274  -5.25848  -7.32568
C     1.21535  -5.62229  -5.23234
H     1.09941  -6.68896  -5.35142
C     1.14751  -5.06119  -3.97133
H     0.97143  -5.68306  -3.10675
C     1.28801  -3.68457  -3.80296
C     1.22560  -3.12826  -2.45475
C     1.83833  -3.59972  -1.30433
H     2.47112  -4.45877  -1.22024
C     1.45455  -2.72290  -0.28191
C     1.79887  -2.74654   1.13276
C     3.06189  -3.16733   1.54255
H     3.78744  -3.47430   0.80364
C     3.39458  -3.16183   2.88379
H     4.37943  -3.47895   3.19371
C     2.47204  -2.74209   3.82789
H     2.73714  -2.73133   4.87454
C     1.20903  -2.33690   3.42872
H     0.48649  -2.01457   4.16306
C     0.86954  -2.34078   2.08907
H    -0.12985  -2.05663   1.78230
C    -0.33628  -1.19819  -2.89337
H    -1.27871  -1.06565  -2.35071
H    -0.52908  -1.71074  -3.83715
C     0.28927   0.18136  -3.14258
H     1.36512   0.06840  -3.31297
H    -0.16351   0.61103  -4.04521
C     0.96739   2.24325  -2.00013
H     2.00710   1.90923  -2.04206
H     0.82713   2.75733  -1.04738
C     0.66859   3.20288  -3.14792
H     1.26133   4.10548  -3.02997
H    -0.38310   3.48359  -3.14471
H     0.91098   2.76330  -4.11290
O    -1.64658  -0.08754  -0.06006
