42

Re    0.00000   0.00000   0.00000
O    -1.31238  -2.33364  -1.53737
O     2.39614  -0.02226  -1.95341
O     1.18622  -1.91309   2.11025
N     0.73752   1.87416   1.20335
N    -1.19228   1.55628  -1.19285
C    -0.20764   2.73188   1.51361
C     0.02901   4.03507   1.97147
C     1.31831   4.46409   2.10379
C     2.36567   3.55985   1.83642
C     3.71929   3.91782   2.00055
C     4.71398   3.01077   1.76831
C     4.38982   1.70521   1.37104
C     3.08675   1.33067   1.18947
C     2.03495   2.24596   1.40044
C    -2.47565   1.27889  -1.28454
C    -3.46580   2.23395  -1.55533
C    -3.10253   3.54232  -1.70788
C    -1.73365   3.87594  -1.67156
C    -1.27683   5.19762  -1.85037
C     0.05927   5.48244  -1.84093
C     0.99354   4.44759  -1.68607
C     0.58192   3.15696  -1.50259
C    -0.79104   2.83369  -1.44833
C    -0.79031  -1.47414  -0.98804
C     1.50829   0.01154  -1.21697
C     0.79868  -1.22059   1.28522
H    -1.23225   2.38740   1.42839
H    -0.81049   4.67450   2.19431
H     1.55191   5.46952   2.42327
H     3.94799   4.92245   2.32572
H     5.74888   3.28771   1.90010
H     5.17961   0.98792   1.20910
H     2.84406   0.31954   0.89492
H    -2.77530   0.25236  -1.12111
H    -4.49665   1.92177  -1.60294
H    -3.83553   4.32040  -1.86491
H    -2.00927   5.97667  -2.00470
H     0.40373   6.49666  -1.97460
H     2.04890   4.67326  -1.72010
H     1.30748   2.36264  -1.40898
O    -1.30486   0.06863   1.00754
