45

Ta    0.00000   0.00000   0.00000
Cl    1.24586  -0.58103  -1.89607
O    -1.42171   0.63929  -1.33113
O     0.64898   1.90565  -0.34859
O     1.32539  -0.21900   1.16903
O    -0.86890  -1.54769   0.14541
C    -1.88576   1.79074  -1.60934
C     0.04656   2.97549  -0.68425
C     2.34934  -0.31232   2.08538
H     2.47935  -1.35480   2.40290
H     2.11155   0.30280   2.96296
H     3.28413   0.04752   1.63706
C    -1.65059  -2.67584   0.25927
H    -1.06477  -3.50262   0.68033
H    -2.03071  -2.96937  -0.72734
H    -2.49899  -2.46296   0.92266
C    -1.20357   2.97201  -1.30676
H    -1.65612   3.91013  -1.56255
C     0.78581   4.27003  -0.34996
C     1.01813   4.24549   1.16862
H     0.06623   4.23791   1.69532
H     1.58653   5.12052   1.47519
H     1.56794   3.34921   1.44755
C     0.03020   5.54023  -0.73205
H    -0.92048   5.60135  -0.20887
H    -0.14507   5.58781  -1.80395
H     0.62623   6.40588  -0.45072
C     2.13404   4.22756  -1.08293
H     2.65555   3.30104  -0.85531
H     2.75357   5.06662  -0.77494
H     1.98242   4.28108  -2.15893
C    -3.25467   1.79376  -2.28794
C    -4.20977   1.08662  -1.31401
H    -4.27796   1.64311  -0.38173
H    -3.84033   0.08885  -1.08768
H    -5.20155   1.00709  -1.75312
C    -3.12781   0.97321  -3.57904
H    -2.69679  -0.00137  -3.36328
H    -2.48264   1.48391  -4.29072
H    -4.10684   0.83435  -4.03164
C    -3.79132   3.18548  -2.61259
H    -3.91865   3.77639  -1.70937
H    -4.76361   3.08817  -3.09108
H    -3.13132   3.71225  -3.29731
O    -0.98276   0.76741   1.08063
