40

Pt    0.00000   0.00000   0.00000
S     0.39067  -0.55628   2.20999
N    -0.29426  -0.00257  -2.02383
N     0.21739  -1.88856  -0.32538
N     0.48713  -2.76232   0.64067
N     0.90056  -3.04335   2.87437
C    -0.54494   1.01874  -2.83058
C    -0.73423   0.85593  -4.19227
C    -0.65954  -0.42503  -4.72801
C    -0.39692  -1.49090  -3.89206
C    -0.21201  -1.26429  -2.52303
C     0.07152  -2.29959  -1.56494
C     0.19350  -3.74102  -1.94753
C     0.59597  -2.24752   1.84513
C     1.01664  -4.48230   2.77572
C     1.93459  -5.00423   3.87752
C     2.08043  -6.51989   3.76876
C     0.71601  -7.19844   3.84596
C    -0.20692  -6.67055   2.75173
C    -0.35681  -5.15670   2.86278
H    -0.59447   1.99204  -2.35869
H    -0.93575   1.71132  -4.81528
H    -0.80522  -0.58649  -5.78536
H    -0.33301  -2.49474  -4.27856
H     0.87446  -2.62726   3.79328
H     1.45178  -4.69323   1.79339
H     1.50774  -4.74884   4.85063
H     2.91232  -4.52548   3.79907
H     2.72376  -6.88456   4.57144
H     2.55638  -6.76921   2.81800
H     0.26817  -7.00295   4.82267
H     0.83431  -8.27847   3.74226
H    -1.18719  -7.14379   2.83074
H     0.20924  -6.92127   1.77354
H    -0.99078  -4.77692   2.06031
H    -0.82333  -4.90060   3.81667
H     0.39604  -4.32140  -1.05188
H    -0.72994  -4.09661  -2.40256
H     1.00678  -3.88340  -2.65788
O    -0.20531   1.62583   0.19246
