67

Pd    0.00000   0.00000   0.00000
N     0.05378   2.02836  -2.25133
C    -0.26758   0.78964  -1.83063
N    -0.67565   0.12214  -2.92433
C    -0.15875   2.13914  -3.60286
H     0.04343   3.04015  -4.14428
C    -0.61372   0.93674  -4.02580
H    -0.91605   0.61113  -4.99993
C     0.43899   3.07836  -1.37433
C     1.65113   3.00438  -0.68191
C     1.98280   4.04684   0.17405
H     2.91856   4.00051   0.71263
C     1.14497   5.13555   0.36025
C    -0.06283   5.16959  -0.32298
H    -0.73465   6.00230  -0.17145
C    -0.43562   4.15119  -1.18582
C     2.57048   1.83210  -0.82915
H     2.21067   0.98429  -0.21358
H     3.57339   2.08700  -0.49584
H     2.61631   1.48508  -1.86088
C     1.53629   6.25872   1.27077
H     2.23635   5.91857   2.02978
H     0.66280   6.68423   1.75952
H     2.01858   7.05033   0.69648
C    -1.76835   4.19061  -1.87322
H    -2.42532   4.90173  -1.37910
H    -2.23944   3.20883  -1.85386
H    -1.66404   4.49518  -2.91427
C    -1.07224  -1.24415  -2.90720
C    -2.20434  -1.61373  -2.17857
C    -2.55089  -2.95672  -2.12416
H    -3.41891  -3.25078  -1.55051
C    -1.80308  -3.92327  -2.77652
C    -0.69265  -3.52411  -3.50710
H    -0.09543  -4.27177  -4.00821
C    -0.30415  -2.19680  -3.58154
C    -3.04176  -0.59161  -1.46209
H    -3.22925   0.27488  -2.09662
H    -2.52107  -0.24416  -0.55631
H    -3.99553  -1.02299  -1.16762
C    -2.15987  -5.37470  -2.67750
H    -3.16009  -5.50621  -2.27188
H    -1.45209  -5.88215  -2.02216
H    -2.10915  -5.85191  -3.65430
C     0.95964  -1.81704  -4.28652
H     1.38798  -2.68047  -4.78725
H     1.66885  -1.46418  -3.53687
H     0.80625  -1.02771  -5.01924
C    -0.86325   1.39283   1.33780
H    -0.01135   2.03457   1.57241
H    -1.79475   1.93370   1.20974
C    -0.90585   0.09603   1.87791
H    -1.86847  -0.40876   1.98210
C     0.27635  -0.65874   1.99826
H     1.18686  -0.16466   2.35677
C     0.17817  -2.10584   2.21778
C    -0.69114  -2.85633   1.41845
H    -1.24619  -2.36563   0.61439
C    -0.79680  -4.22158   1.58699
H    -1.45960  -4.79117   0.95106
C    -0.04261  -4.86369   2.55707
H    -0.12377  -5.93315   2.68751
C     0.83149  -4.13299   3.34374
H     1.43255  -4.63262   4.09034
C     0.94658  -2.76579   3.17369
H     1.63823  -2.20047   3.78369
O     1.01355  -1.12386  -0.65738
