25

Pd    0.00000   0.00000   0.00000
Cl    0.50630   2.21542  -0.31678
N    -1.67129   0.10776  -0.89719
N    -3.78836  -0.80430  -1.72567
C    -2.68174  -0.30085  -1.29217
C    -4.04371  -2.21196  -1.49523
H    -4.18974  -2.72483  -2.44876
H    -4.94000  -2.33494  -0.88239
H    -3.19210  -2.65201  -0.97689
C    -4.80015  -0.01636  -2.38815
H    -5.72772  -0.02930  -1.80901
H    -5.00109  -0.42660  -3.38131
H    -4.46038   1.01201  -2.49093
N     1.67100  -0.10738   0.89795
N     3.78620   0.80781   1.72760
C     2.68054   0.30274   1.29365
C     4.03940   2.21588   1.49736
H     4.18217   2.72948   2.45101
H     4.93694   2.34020   0.88664
H     3.18821   2.65410   0.97676
C     4.79727   0.02225   2.39392
H     5.72673   0.03714   1.81791
H     4.99400   0.43308   3.38770
H     4.45936  -1.00683   2.49568
O    -0.36469  -1.59308   0.22716
