68

Re    0.00000   0.00000   0.00000
O     1.68477  -1.24900  -2.26831
O     1.53040  -1.75917   2.02674
O    -2.58246  -1.67497  -0.28926
N    -0.69448   1.67095  -1.16914
N    -0.73601   4.24100  -2.30679
N    -0.76690   6.43179  -0.68053
N    -0.88987   6.10487   2.09745
N    -0.93596   3.59641   3.17046
N    -0.78757   1.35987   1.47418
C     0.99668  -0.85481  -1.44502
C     0.89969  -1.17686   1.27193
C    -1.61305  -1.06287  -0.18271
C    -0.73117   2.77584  -0.42437
C    -0.75747   1.83080  -2.51008
C    -0.83675   0.72901  -3.37985
C    -0.85016   0.88930  -4.74150
C    -0.78858   2.19535  -5.30316
C    -0.75104   3.28493  -4.47445
C    -0.74972   3.14470  -3.07349
C    -0.75906   4.07444  -1.00487
C    -0.78649   5.23589  -0.13131
C    -0.79554   7.49349   0.13440
C    -0.76437   8.79656  -0.39941
C    -0.79998   9.89469   0.41778
C    -0.87232   9.72829   1.83194
C    -0.90263   8.47046   2.37229
C    -0.86291   7.32677   1.55113
C    -0.84477   5.06900   1.28675
C    -0.86640   3.73644   1.86706
C    -0.99066   2.35232   3.65947
C    -1.08875   2.16391   5.05133
C    -1.17292   0.91221   5.60038
C    -1.18501  -0.22751   4.74836
C    -1.07604  -0.06788   3.39093
C    -0.94629   1.20489   2.80782
C    -0.78277   2.60760   1.00508
C    -0.92651  -0.30626  -5.63408
C    -0.77807   2.36988  -6.78774
C    -0.76384  11.27117  -0.16676
C    -0.91354  10.93169   2.71955
C    -1.26440   0.73762   7.08217
C    -1.31241  -1.59680   5.33206
H    -0.89940  -0.26048  -2.94508
H    -0.72571   4.28998  -4.86582
H    -0.70954   8.89576  -1.47271
H    -0.95436   8.31796   3.43947
H    -1.09918   3.05062   5.66579
H    -1.09966  -0.92914   2.73541
H    -0.98397  -1.21917  -5.04805
H    -1.80129  -0.24786  -6.28052
H    -0.04611  -0.35875  -6.27332
H    -0.72148   3.42273  -7.04943
H     0.07602   1.85499  -7.22554
H    -1.68000   1.94817  -7.22974
H    -0.70446  11.22511  -1.25064
H    -1.65800  11.82875   0.10963
H     0.09817  11.82308   0.20597
H    -0.97304  10.63538   3.76322
H    -0.02073  11.54040   2.58097
H    -1.77699  11.55275   2.48374
H    -1.23333   1.70058   7.58418
H    -2.19119   0.23280   7.35232
H    -0.43822   0.12776   7.44527
H    -1.32929  -2.34801   4.54749
H    -0.47341  -1.80566   5.99468
H    -2.22605  -1.68087   5.91912
O     1.31499   0.98312   0.16363
