29

Pt    0.00000   0.00000   0.00000
N     1.19685   1.40262   0.84376
H     2.16998   1.12295   0.73193
N    -0.13249   3.05897   1.70324
H    -0.93343   2.50724   1.36480
C     1.06444   2.53634   1.46620
C    -0.38107   4.30129   2.38052
H    -1.45590   4.45302   2.42950
H     0.06541   5.14563   1.84728
H     0.01526   4.28934   3.39997
C     2.27025   3.29802   1.94152
H     2.29001   4.28630   1.48559
H     3.18738   2.77478   1.68506
H     2.22867   3.42493   3.02198
Cl   -1.99612   1.03548   0.52166
N    -1.19687  -1.40217  -0.84393
H    -2.16991  -1.12211  -0.73230
C    -1.06471  -2.53515  -1.46774
N     0.13204  -3.05827  -1.70466
H     0.93313  -2.50770  -1.36463
C     0.38002  -4.30038  -2.38255
H     1.45487  -4.45070  -2.43530
H    -0.06353  -5.14527  -1.84758
H    -0.01991  -4.28917  -3.40062
C    -2.27076  -3.29539  -1.94465
H    -2.29242  -4.28363  -1.48840
H    -3.18746  -2.77065  -1.68946
H    -2.22771  -3.42250  -3.02511
O     1.42686  -0.74047  -0.37185
