39

Pd    0.00000   0.00000   0.00000
P    -0.91660   0.59776   1.95733
O     1.16595  -2.48818   3.32169
N     0.81748  -1.65733   1.28531
C     1.92436  -2.56959   1.09532
H     2.78114  -2.02004   0.69592
H     1.64377  -3.33425   0.36686
C     2.15918  -3.13447   2.51660
H     2.00383  -4.21382   2.58044
H     3.14350  -2.88580   2.92082
C     0.46903  -1.67311   2.50595
C    -0.64253  -0.86918   3.07923
H    -0.41503  -0.59280   4.11227
H    -1.54832  -1.48319   3.07333
C    -2.68131   1.06406   2.30062
H    -2.80922   2.04301   1.82239
C    -3.55581   0.05762   1.55311
H    -3.58343  -0.89925   2.07202
H    -3.15334  -0.10615   0.54809
H    -4.57722   0.42143   1.46385
C    -3.04660   1.17568   3.77558
H    -4.08330   1.49373   3.87348
H    -2.42063   1.90754   4.28090
H    -2.94111   0.21843   4.28095
C     0.15349   1.88040   2.77324
H    -0.05239   1.93884   3.84909
C     1.60242   1.45373   2.53650
H     1.75363   1.25191   1.46099
H     1.85159   0.55585   3.10131
H     2.28871   2.24413   2.83634
C    -0.10463   3.22758   2.10541
H     0.59319   3.97629   2.47618
H    -1.11542   3.58134   2.29706
H     0.03673   3.12510   1.02764
C    -0.81960   1.42052  -1.22332
H    -1.30714   0.87555  -2.04229
H    -0.01975   2.03900  -1.64607
H    -1.55669   2.06072  -0.72556
O     0.92782  -0.49727  -1.27058
