62

Re    0.00000   0.00000   0.00000
Cl   -0.71932   2.04003   0.75855
P    -1.56006  -1.08876   1.43816
N     1.55701   0.06726   1.45868
N     1.06214  -1.71915  -0.68940
N     1.37093   1.01555  -1.20434
N     5.62164  -0.73264   0.35817
N     2.84343  -0.14773   1.14101
N     2.40026  -1.70378  -0.73957
N     2.67874   0.73559  -1.16548
N     4.66925  -0.66767  -0.58044
C    -2.39353  -2.58814   0.75724
C    -3.44847  -3.19832   1.67109
C    -2.95530  -0.05668   2.03986
C    -3.82308   0.41218   0.87711
C    -1.16719  -1.42736   4.24044
C    -0.48689  -1.96133   5.32240
C     0.56444  -2.83880   5.12401
C     0.94122  -3.18376   3.83535
C     0.26415  -2.65149   2.75634
C    -0.80218  -1.77520   2.94629
C     3.61137   0.03299   2.22452
C     2.79185   0.38505   3.27715
C     1.50799   0.39541   2.74323
C     2.84296  -2.85914  -1.26016
C     1.75046  -3.63749  -1.57779
C     0.65029  -2.87191  -1.20269
C     3.34729   1.63572  -1.91066
C     2.43269   2.50903  -2.45392
C     1.19690   2.07251  -1.97491
C     5.21287  -0.87354  -1.80656
C     6.56128  -1.07156  -1.64580
C     6.75806  -0.97043  -0.26166
B     3.20328  -0.44432  -0.32005
H    -1.60158  -3.31928   0.57890
H    -2.81767  -2.30608  -0.20947
H    -3.77759  -4.15377   1.26675
H    -4.31976  -2.55553   1.75866
H    -3.04021  -3.37172   2.66572
H    -2.51152   0.81259   2.53222
H    -3.54327  -0.62228   2.76706
H    -4.57662   1.11364   1.22848
H    -4.32529  -0.42287   0.39484
H    -3.20673   0.91453   0.13441
H    -1.97542  -0.73306   4.41188
H    -0.77748  -1.68572   6.32566
H     1.09439  -3.24871   5.97070
H     1.76727  -3.86103   3.67572
H     0.56464  -2.90089   1.74680
H     4.67137  -0.10766   2.15755
H     3.07944   0.60606   4.28353
H     0.57379   0.63441   3.21307
H     3.88856  -3.06296  -1.36763
H     1.74824  -4.61284  -2.01746
H    -0.39552  -3.08429  -1.30314
H     4.41395   1.60748  -2.00204
H     2.62588   3.34160  -3.09756
H     0.21645   2.47092  -2.15189
H     4.60922  -0.86795  -2.69262
H     7.29370  -1.25918  -2.40358
H     7.66971  -1.06101   0.29511
O    -1.01590  -0.17711  -1.28806
