63

Pd    0.00000   0.00000   0.00000
I    -2.35205   0.16486  -1.04753
P     2.11484  -0.48543   0.48456
C     2.47182  -1.71779   1.75649
C     2.44407  -3.08533   1.50710
C     2.55952  -3.98225   2.55213
C     2.67483  -3.52000   3.85340
C     2.66193  -2.15822   4.11139
C     2.55324  -1.25587   3.07063
C     3.20933   0.92965   0.82411
C     4.40808   0.86031   1.52682
C     5.13637   2.01442   1.75225
C     4.67357   3.23745   1.29354
C     3.46569   3.31580   0.61924
C     2.73492   2.16582   0.39291
P     0.86742  -0.91061  -1.83256
C     0.97634   0.30675  -3.18701
C     0.69468   1.62463  -2.83335
C     0.73598   2.63134  -3.77893
C     1.04974   2.32458  -5.09283
C     1.30197   1.01176  -5.45868
C     1.26118   0.00174  -4.51493
C     0.27344  -2.44295  -2.58101
C    -0.73511  -2.33391  -3.53797
C    -1.34630  -3.47362  -4.02528
C    -0.97032  -4.72128  -3.55406
C     0.00500  -4.82976  -2.57539
C     0.61434  -3.69400  -2.07806
N     2.41709  -1.14169  -1.09077
C     3.72060  -1.35451  -1.74370
C     4.71060  -1.92398  -0.72915
C     3.56021  -2.34564  -2.89489
C     4.25342  -0.02205  -2.28303
H     2.32609  -3.44307   0.49400
H     2.54545  -5.04388   2.35271
H     2.75633  -4.22308   4.66855
H     2.72306  -1.79697   5.12668
H     2.51178  -0.19355   3.27285
H     4.76388  -0.08377   1.91705
H     6.06599   1.95848   2.29878
H     5.24650   4.13313   1.47947
H     3.08758   4.27058   0.28733
H     1.76267   2.22109  -0.09800
H     0.39649   1.85602  -1.80437
H     0.50761   3.64751  -3.49576
H     1.07895   3.10562  -5.83726
H     1.52275   0.76983  -6.48770
H     1.43025  -1.02188  -4.82011
H    -1.04979  -1.35825  -3.88314
H    -2.12729  -3.38511  -4.76492
H    -1.45090  -5.60968  -3.93504
H     0.28001  -5.80021  -2.18882
H     1.35227  -3.77284  -1.29248
H     4.49632  -2.42274  -3.44241
H     2.78672  -2.01218  -3.58120
H     3.29510  -3.33364  -2.52745
H     4.79515  -1.26588   0.13109
H     4.40098  -2.90850  -0.38787
H     5.69151  -2.01354  -1.18993
H     5.21475  -0.17136  -2.76844
H     3.56157   0.40057  -3.00876
H     4.38328   0.69214  -1.47233
O    -0.27971   0.70921   1.46331
