63

Pd    0.00000   0.00000   0.00000
Br    0.80050   0.95789  -2.03881
C     3.31797  -1.25606   0.31722
P     2.03182  -0.14214   0.92778
P    -0.29061  -0.85662   2.04745
N     1.39507  -0.72020   2.43512
C     3.45993  -2.57626   0.72665
C     4.37116  -3.40198   0.09477
C     5.12329  -2.92364  -0.96586
C     4.95143  -1.62085  -1.40844
C     4.04663  -0.78915  -0.77798
C     2.84921   1.47492   1.13618
C     2.01616   2.58645   1.02818
C     2.53366   3.86311   1.13113
C     3.89428   4.03808   1.32748
C     4.73296   2.93763   1.40261
C     4.21849   1.65752   1.30202
C    -0.86770  -2.54709   2.32684
C    -2.24798  -2.73032   2.22668
C    -2.77987  -4.00376   2.28243
C    -1.94307  -5.10083   2.42040
C    -0.57024  -4.92436   2.47931
C    -0.03115  -3.65259   2.41835
C    -1.30427   0.18864   3.14514
C    -1.97444  -0.26471   4.27690
C    -2.75662   0.61136   5.00782
C    -2.88499   1.93325   4.61270
C    -2.24459   2.38247   3.46873
C    -1.46454   1.51025   2.73464
C     2.00611  -0.60981   3.77210
C     1.33100  -1.59099   4.72905
H     1.52697  -2.62017   4.44101
H     1.71524  -1.43882   5.73485
H     0.25707  -1.42968   4.74432
C     1.83291   0.81708   4.30624
H     2.31332   1.53299   3.64304
H     0.77746   1.06867   4.38393
H     2.28218   0.90490   5.29243
C     3.49542  -0.93903   3.68431
H     3.65304  -1.97958   3.41384
H     3.98154  -0.30803   2.94600
H     3.96391  -0.76193   4.64946
H     2.85169  -2.95574   1.53434
H     4.48624  -4.42484   0.42275
H     5.83025  -3.57288  -1.46008
H     5.51464  -1.25636  -2.25405
H     3.88312   0.21823  -1.13919
H     0.95288   2.44003   0.82437
H     1.88242   4.71886   1.04022
H     4.30512   5.03352   1.40152
H     5.79642   3.07567   1.52969
H     4.88619   0.80697   1.32940
H    -2.89252  -1.87178   2.08609
H    -3.84765  -4.14199   2.20598
H    -2.35989  -6.09582   2.46315
H     0.08302  -5.78087   2.56123
H     1.03994  -3.51552   2.43537
H    -1.90680  -1.30211   4.57575
H    -3.27689   0.25604   5.88486
H    -3.50165   2.60852   5.18621
H    -2.36823   3.40324   3.14098
H    -0.99533   1.84157   1.80580
O    -1.60990   0.01417  -0.36126
