38

Zn    0.00000   0.00000   0.00000
Br   -1.77533  -0.96626   1.20570
S    -0.49971   4.21160  -0.99474
N     0.38184   1.70368   1.26213
N     0.08125   3.58494   2.38583
H    -0.29956   4.48363   2.63283
C     1.25327   1.70830   2.32954
C     2.19528   0.77074   2.73632
H     2.35021  -0.14578   2.18975
C     2.92927   1.06542   3.86524
H     3.67035   0.36117   4.20959
C     2.74142   2.25158   4.57882
H     3.33989   2.43455   5.45804
C     1.81082   3.19303   4.18861
H     1.66362   4.10946   4.73852
C     1.07138   2.90411   3.05337
C    -0.30057   2.82213   1.33382
C    -1.30904   3.25562   0.35078
H    -2.03252   3.94029   0.78985
H    -1.82287   2.40457  -0.09466
N    -0.90059   0.84698  -1.76769
N    -0.91158   2.01634  -3.64541
H    -0.67687   2.73964  -4.30523
C    -1.76186   0.23038  -2.65107
C    -2.54588  -0.90942  -2.51194
H    -2.55631  -1.47811  -1.59672
C    -3.31945  -1.27580  -3.59272
H    -3.94082  -2.15461  -3.51986
C    -3.32377  -0.54277  -4.78149
H    -3.94583  -0.87265  -5.59947
C    -2.55392   0.59213  -4.93504
H    -2.55541   1.16166  -5.85121
C    -1.77563   0.96789  -3.85237
C    -0.41067   1.89238  -2.39381
C     0.49359   2.88810  -1.79256
H     1.09309   3.39516  -2.54664
H     1.14497   2.44537  -1.04106
O     1.49157  -0.29676  -0.64005
