43

Ni    0.00000   0.00000   0.00000
N     0.47071   1.66262  -0.87224
N    -0.82161  -1.44417   0.88204
C    -1.38566  -0.07856  -1.33548
C    -2.28135  -1.09078  -1.66939
H    -2.20331  -2.07584  -1.22349
C    -3.29716  -0.87854  -2.58895
H    -3.97193  -1.68767  -2.83255
C    -3.45679   0.35918  -3.18882
H    -4.26167   0.52331  -3.89056
C    -2.57235   1.37689  -2.89749
H    -2.68381   2.33614  -3.38177
C    -1.53722   1.16240  -1.99008
C    -0.50414   2.13834  -1.68069
C    -0.45769   3.44132  -2.17168
H    -1.25711   3.80613  -2.79613
C     0.60919   4.25788  -1.85346
H     0.65668   5.27055  -2.22581
C     1.61857   3.74546  -1.05444
H     2.48162   4.33512  -0.79124
C     1.50415   2.44876  -0.58460
H     2.28232   2.03623   0.04345
C    -0.33149  -2.68074   0.90568
H     0.58220  -2.85347   0.35031
C    -0.93747  -3.70700   1.60654
H    -0.50292  -4.69337   1.59581
C    -2.09746  -3.43944   2.31760
H    -2.59257  -4.21595   2.88059
C    -2.60776  -2.15388   2.29171
H    -3.50283  -1.89439   2.83539
C    -1.94674  -1.17332   1.56253
C    -2.45509   0.20606   1.45369
C    -1.58969   1.28398   1.66812
H    -0.60539   1.11868   2.10153
C    -2.03400   2.57854   1.44936
H    -1.36614   3.41002   1.62254
C    -3.32530   2.80496   1.00387
H    -3.66121   3.81333   0.81258
C    -4.19135   1.74011   0.81613
H    -5.20163   1.91782   0.47911
C    -3.76343   0.44568   1.04678
H    -4.42937  -0.38701   0.87335
O     1.36301  -0.17953   0.91240
