68

Ti    0.00000   0.00000   0.00000
Cl   -1.14050   1.72728   0.81822
O    -1.27864  -0.42837  -1.11008
N     1.64372   0.65779   0.86899
N     1.30328  -1.37142  -0.77864
N     0.46731   1.40349  -1.74052
F     0.36353   4.03752  -0.82825
F     2.62865   5.37818  -0.14842
F     5.06684   4.21021  -0.49852
F     5.22730   1.71275  -1.59682
F     2.94926   0.39337  -2.30492
C     2.07762   1.59645   1.71738
H     1.43022   2.39801   2.03698
C     3.40227   1.35490   2.08966
H     3.99123   1.95216   2.75799
C     3.79526   0.19337   1.44029
H     4.74921  -0.29462   1.49616
C     2.68868  -0.23040   0.68778
C     2.44732  -1.31784  -0.17111
H     3.22332  -2.07076  -0.31214
C     1.98043  -2.75474  -2.74538
H     2.95096  -3.02017  -2.32338
H     2.10647  -1.84344  -3.33319
C     1.48939  -3.89828  -3.62924
H     0.54159  -3.61668  -4.09392
H     2.21183  -4.08041  -4.42701
C     1.29347  -5.16811  -2.80502
H     2.25485  -5.48354  -2.39368
H     0.92587  -5.97170  -3.44566
C     0.30976  -4.92272  -1.66361
H     0.20449  -5.82715  -1.06232
H    -0.67195  -4.67808  -2.07429
C     0.78988  -3.77487  -0.78155
H     0.07640  -3.57850   0.02397
H     1.74674  -4.03899  -0.32494
C     0.96523  -2.50290  -1.62379
H     0.00047  -2.25502  -2.09015
C    -2.14112   0.10272  -1.91585
C    -3.47400  -0.38808  -2.02775
C    -4.30233   0.20095  -2.96119
H    -5.31286  -0.15365  -3.07891
C    -3.89328   1.26317  -3.77262
H    -4.58461   1.67991  -4.48829
C    -2.63708   1.78521  -3.63388
H    -2.31937   2.63103  -4.22539
C    -1.74004   1.22537  -2.70450
C    -0.46823   1.83010  -2.52624
H    -0.28838   2.73014  -3.12461
C     1.60756   2.16164  -1.53206
C     1.55440   3.46393  -1.01481
C     2.70979   4.15002  -0.65938
C     3.95649   3.55739  -0.84198
C     4.03767   2.28177  -1.39581
C     2.87546   1.60925  -1.73990
C    -3.95663  -1.47530  -1.07560
C    -3.04482  -2.70888  -1.15195
H    -2.06667  -2.49419  -0.72507
H    -2.92757  -3.03139  -2.18579
H    -3.48584  -3.52505  -0.58430
C    -5.38896  -1.92378  -1.38595
H    -6.09366  -1.10321  -1.27687
H    -5.67749  -2.70112  -0.68230
H    -5.46524  -2.33426  -2.39063
C    -3.93019  -0.89738   0.34829
H    -4.58108  -0.02757   0.41536
H    -2.92160  -0.59625   0.63756
H    -4.27534  -1.64651   1.05705
O    -0.33521  -1.02709   1.24708
