55

Pd    0.00000   0.00000   0.00000
P    -1.52999  -0.52120  -1.52829
P     1.53814  -0.41137  -1.57657
Cl    1.52007   0.71578   1.52157
C    -0.67097  -1.26411  -3.00148
C     0.65448  -0.53674  -3.20584
C     3.12683   0.37993  -1.92831
C     4.03206   0.40733  -0.86809
C     5.26922   0.99910  -1.03382
C     5.60717   1.57004  -2.25118
C     4.70144   1.55970  -3.29904
C     3.45859   0.97131  -3.14215
C     2.00934  -2.14567  -1.27231
C     1.42884  -2.81809  -0.19773
C     1.74843  -4.14371   0.03991
C     2.64751  -4.79911  -0.78629
C     3.23569  -4.12915  -1.84796
C     2.92040  -2.80525  -2.09233
C    -2.12344   1.05927  -2.19643
C    -3.02548   1.12753  -3.25539
C    -3.41497   2.35904  -3.74867
C    -2.90606   3.52338  -3.19348
C    -2.00726   3.46030  -2.14081
C    -1.61377   2.23137  -1.64000
C    -2.98663  -1.55448  -1.25799
C    -4.24082  -0.98986  -1.05091
C    -5.31674  -1.80173  -0.74187
C    -5.14536  -3.17100  -0.62197
C    -3.88999  -3.73216  -0.79523
C    -2.80983  -2.92737  -1.10325
H    -1.30562  -1.19861  -3.89022
H    -0.48549  -2.32117  -2.78478
H     1.28050  -1.05268  -3.94041
H     0.46588   0.48577  -3.55321
H     3.73862  -0.01509   0.08416
H     5.96944   1.02162  -0.21263
H     6.57449   2.03210  -2.38179
H     4.96162   2.01502  -4.24362
H     2.75563   0.97658  -3.96247
H     0.73361  -2.28879   0.47383
H     1.30106  -4.66417   0.87360
H     2.89804  -5.83244  -0.59783
H     3.94447  -4.63986  -2.48325
H     3.38659  -2.27359  -2.91123
H    -3.42619   0.21640  -3.68000
H    -4.11904   2.41315  -4.56609
H    -3.21529   4.48261  -3.58123
H    -1.61641   4.36881  -1.70789
H    -0.91304   2.17696  -0.79255
H    -4.36505   0.08144  -1.11767
H    -6.29024  -1.36265  -0.58221
H    -5.98722  -3.80077  -0.37568
H    -3.75246  -4.79692  -0.67681
H    -1.82170  -3.35832  -1.20636
O    -1.28226   0.06515   1.03637
