45

O    -0.05683  -1.60950   1.86308
H    -0.94140  -1.96833   1.70718
H     0.55937  -2.27408   1.52963
Br   -1.97939  -0.82854  -0.74479
Ni    0.00000   0.00000   0.00000
N    -0.76125   1.32296   1.18529
N    -0.04364   2.38050   1.58157
N     0.53681   1.85600  -1.16723
N     1.03061   2.87808  -0.46526
C    -0.64888   2.99474   2.62055
H    -0.22245   3.84435   3.11209
C    -1.81381   2.31512   2.87541
H    -2.54227   2.53204   3.62806
C    -1.83907   1.27495   1.94282
H    -2.58919   0.52303   1.79123
C     1.37644   3.89582  -1.28301
H     1.82692   4.79706  -0.92196
C     1.05526   3.50993  -2.56158
H     1.18509   4.07401  -3.46134
C     0.52979   2.21897  -2.43161
H     0.15910   1.55467  -3.18784
C     1.24704   2.68523   0.96566
C     1.81378   3.95599   1.57387
C     3.02304   3.95842   2.25323
H     3.58467   3.04349   2.36420
C     3.51614   5.13575   2.79217
H     4.45862   5.12430   3.31764
C     2.80801   6.31637   2.65879
H     3.19508   7.23203   3.07863
C     1.59709   6.31946   1.98523
H     1.03589   7.23531   1.87855
C     1.10098   5.14724   1.44619
H     0.15308   5.15727   0.92603
C     2.17616   1.48341   1.13383
C     2.02531   0.60149   2.20052
H     1.25414   0.75452   2.94207
C     2.88458  -0.47805   2.33304
H     2.74399  -1.16370   3.15452
C     3.89843  -0.68151   1.41480
H     4.55112  -1.53546   1.50772
C     4.07171   0.21182   0.37062
H     4.86005   0.05987  -0.34963
C     3.22201   1.29292   0.23274
H     3.36585   1.98330  -0.58654
O     0.90883  -1.06588  -0.87203
