50

Ru    0.00000   0.00000   0.00000
Cl    0.42162  -1.98492   1.20934
N    -1.63279   0.78776   1.17637
N    -0.49510   1.43261  -1.15196
N     1.46540  -0.36110  -1.55524
C     1.27326   0.97007   0.93700
C     2.13935   1.67578   1.61103
C     2.76148   1.27562   2.87112
C     2.50467   0.01481   3.41459
C     3.08281  -0.35123   4.61320
C     3.92165   0.52470   5.28601
C     4.18288   1.77406   4.74916
C     3.60824   2.15008   3.54935
C    -1.25036   1.79256   2.16994
C    -2.36474  -0.28180   1.85657
C    -2.48924   1.43137   0.15357
C    -1.68519   2.00798  -0.98084
C    -2.12417   2.97480  -1.87057
C    -1.32056   3.29738  -2.95804
C    -0.10057   2.65437  -3.13102
C     0.29428   1.71896  -2.18926
C     1.61011   0.98118  -2.16397
C     1.01042  -1.30348  -2.57795
C     2.74990  -0.84197  -1.04381
H     2.42748   2.65714   1.23892
H     1.85686  -0.66761   2.88159
H     2.87862  -1.32832   5.02521
H     4.37190   0.23425   6.22401
H     4.83792   2.46044   5.26719
H     3.81586   3.12856   3.13666
H    -2.13761   2.16322   2.69911
H    -0.75139   2.63070   1.68328
H    -0.56702   1.34940   2.89319
H    -1.71158  -0.73266   2.60518
H    -2.63788  -1.05393   1.13701
H    -3.26962   0.10292   2.34227
H    -3.11080   0.64600  -0.29610
H    -3.14673   2.18436   0.60805
H    -3.08176   3.45077  -1.73063
H    -1.64922   4.03469  -3.67324
H     0.52612   2.87552  -3.98054
H     2.04429   0.90934  -3.17057
H     2.29455   1.56030  -1.52930
H     0.10042  -0.93899  -3.05377
H     0.79278  -2.26367  -2.10994
H     1.78413  -1.44372  -3.34395
H     3.14301  -0.15006  -0.30031
H     3.47718  -0.96235  -1.85567
H     2.58816  -1.80306  -0.55423
O    -1.16435  -0.80846  -0.84449
