69

Pd    0.00000   0.00000   0.00000
Cl   -4.09325   0.20040   5.45668
P    -0.99663   1.37732   1.42265
O    -0.45373   2.91783   1.43180
O     0.35711   1.05214   4.92714
N    -0.99358   1.14132   3.10954
C     0.18688   1.39824   3.78040
C     1.19157   2.19906   3.03042
C     2.49540   2.27244   3.51645
H     2.75322   1.66217   4.36852
C     3.41800   3.11111   2.92197
H     4.42797   3.15518   3.29815
C     3.03949   3.91164   1.85504
H     3.75345   4.58014   1.39955
C     1.74842   3.85472   1.35827
H     1.44059   4.46255   0.52281
C     0.83144   2.99168   1.93710
C    -2.71799   1.61810   0.94660
C    -3.54159   2.56645   1.54087
H    -3.15622   3.17961   2.34263
C    -4.83932   2.71726   1.08844
H    -5.48930   3.44610   1.54906
C    -5.30772   1.93048   0.04711
H    -6.32416   2.04817  -0.29711
C    -4.48115   0.99460  -0.55532
H    -4.85129   0.38750  -1.36708
C    -3.18175   0.83730  -0.10866
H    -2.51792   0.09242  -0.57023
C    -1.98070   0.30625   3.77920
H    -1.48820  -0.57437   4.20078
H    -2.70611  -0.02072   3.03119
C    -2.66938   1.09638   4.88569
H    -3.02302   2.05977   4.51721
H    -2.00239   1.23971   5.73502
Cl   -0.90527  -1.51809   1.42643
Cl    4.09376   0.19976  -5.45555
P     0.99599   1.37736  -1.42280
O     0.45312   2.91784  -1.43193
O    -0.35695   1.05252  -4.92767
N     0.99333   1.14146  -3.10972
C    -0.18695   1.39853  -3.78086
C    -1.19186   2.19917  -3.03095
C    -2.49562   2.27251  -3.51717
H    -2.75325   1.66243  -4.36941
C    -3.41837   3.11105  -2.92271
H    -4.42827   3.15515  -3.29908
C    -3.04011   3.91143  -1.85558
H    -3.75421   4.57978  -1.40008
C    -1.74912   3.85450  -1.35859
H    -1.44148   4.46218  -0.52294
C    -0.83199   2.99166  -1.93744
C     2.71728   1.61804  -0.94657
C     3.54070   2.56678  -1.54045
H     3.15517   3.18022  -2.34192
C     4.83840   2.71760  -1.08796
H     5.48825   3.44674  -1.54827
C     5.30692   1.93037  -0.04701
H     6.32335   2.04807   0.29725
C     4.48051   0.99407   0.55499
H     4.85078   0.38667   1.36647
C     3.18110   0.83681   0.10832
H     2.51729   0.09171   0.56958
C     1.98054   0.30622  -3.77904
H     1.48803  -0.57425  -4.20090
H     2.70553  -0.02097  -3.03074
C     2.66995   1.09624  -4.88516
H     3.02380   2.05947  -4.51647
H     2.00341   1.23984  -5.73480
O     0.65664  -1.10309  -1.03659
