32

Cd    0.00000   0.00000   0.00000
Cl    0.54891  -0.25506  -2.25737
N    -1.34424   1.99795   0.04650
C    -1.95078   2.51914  -1.00623
H    -1.67100   2.10163  -1.96679
C    -2.88615   3.53973  -0.90170
H    -3.36402   3.93617  -1.78313
C    -3.18257   4.03340   0.35864
H    -3.89687   4.83385   0.48322
C    -2.54866   3.48565   1.46160
H    -2.75077   3.86541   2.45057
C    -1.63335   2.45211   1.26886
N     0.19120   1.15973   2.06813
C    -0.93964   1.77890   2.38518
C    -1.45903   1.72842   3.67846
H    -2.39412   2.20594   3.92192
C    -0.77473   0.99860   4.63540
H    -1.16278   0.92203   5.64016
C     0.39099   0.33797   4.28710
H     0.90672  -0.27477   5.00833
C     0.84362   0.43807   2.97177
N     2.04213  -0.53800   1.15738
C     2.02181  -0.29806   2.47128
C     3.04771  -0.73951   3.30544
H     3.03744  -0.51216   4.35961
C     4.09449  -1.46109   2.75589
H     4.89909  -1.81606   3.38287
C     4.09231  -1.71882   1.39445
H     4.88601  -2.28322   0.93188
C     3.04049  -1.22775   0.63283
H     2.99213  -1.38754  -0.43834
O    -1.01680  -1.01376   0.81296
