57

Pd    0.00000   0.00000   0.00000
N    -0.66585  -1.80930   0.64607
C    -1.86592   0.63552   0.30874
N    -2.13248   1.67846   0.96753
C    -2.94861  -0.21021  -0.19521
C    -2.94579  -1.60831  -0.03957
C    -3.98914  -2.35893  -0.57629
H    -3.97566  -3.43501  -0.48209
C    -5.01979  -1.74817  -1.26529
H    -5.81198  -2.34712  -1.68836
C    -5.03138  -0.36917  -1.41097
H    -5.84098   0.11155  -1.93953
C    -4.00963   0.38964  -0.87663
H    -4.01044   1.46389  -0.97919
C    -1.86427  -2.29025   0.68582
N    -2.13395  -3.45663   1.32312
H    -3.07746  -3.69958   1.55991
H    -1.38035  -3.85345   1.86203
O     0.28993  -2.53634   1.37380
H     1.15929  -2.19214   1.01307
C     0.69641   1.66031  -0.59493
N     1.38785   2.58104  -0.78634
C     2.26161   3.61443  -0.86676
C     1.96937   4.70137  -1.69715
C     2.88088   5.74334  -1.74548
H     2.67827   6.59427  -2.37885
C     4.04297   5.70171  -0.99371
H     4.74307   6.52212  -1.04391
C     4.31422   4.61522  -0.17982
H     5.22415   4.59102   0.40112
C     3.43295   3.54875  -0.09912
C     0.70068   4.71518  -2.48922
H     0.66682   5.57834  -3.14848
H    -0.15609   4.75043  -1.81735
H     0.61262   3.80923  -3.08848
C     3.68868   2.36421   0.77117
H     4.63153   2.46625   1.30084
H     3.71569   1.44815   0.18063
H     2.88078   2.24985   1.49526
C    -1.17250   2.58600   1.39296
C    -1.28410   3.89558   0.89625
C    -0.35774   4.84846   1.27743
H    -0.42692   5.84972   0.87625
C     0.65056   4.53379   2.17351
H     1.36794   5.28542   2.46689
C     0.72773   3.25792   2.69734
H     1.49638   3.02141   3.42014
C    -0.15973   2.26028   2.30964
C    -2.38884   4.21166  -0.06650
H    -2.41470   5.27449  -0.29526
H    -3.34480   3.91410   0.36169
H    -2.25708   3.65067  -0.99276
C    -0.02392   0.88295   2.90869
H    -0.97408   0.34336   2.87455
H     0.28977   0.96140   3.94890
H     0.75364   0.30039   2.37781
O     1.52948  -0.61688  -0.05161
