31

Re    0.00000   0.00000   0.00000
S     0.47041  -2.43270  -0.71211
O     1.50122  -2.19949   4.40854
H     2.19962  -2.46926   5.01716
N     1.37558  -4.17584   1.01279
H     1.77110  -4.42301   1.90510
H     1.76986  -4.61530   0.19754
C     0.79157  -2.97142   0.83293
O    -0.72414  -1.39231   8.55350
H     0.02054  -1.90060   8.89864
N     0.41306  -2.31519   1.95014
H     0.73683  -2.66415   2.85093
C    -0.56449  -0.52691   3.00806
H    -1.08446   0.40920   2.83475
N    -0.16139  -1.08597   1.91941
C    -0.51828  -0.89020   4.41484
C     0.46010  -1.63595   5.09543
C     0.39821  -1.79772   6.47206
H     1.18184  -2.35806   6.96972
C    -0.63528  -1.24672   7.21674
C    -1.61726  -0.50385   6.55943
H    -2.41411  -0.06835   7.13837
C    -1.53572  -0.32186   5.20283
H    -2.28918   0.27181   4.70838
O    -0.46768   2.81880   1.18392
C    -0.30798   1.77691   0.72663
O     0.83264   1.10786  -2.76015
C     0.46345   0.73927  -1.74382
O    -2.96119  -0.47750  -0.71364
C    -1.86340  -0.28277  -0.45058
O     1.58792   0.04548   0.44604
