59

Ti    0.00000   0.00000   0.00000
Cl   -0.99336  -1.91968   0.61077
O     0.06447  -0.49360  -1.72027
C    -0.20862  -0.66415  -4.07102
H     0.05713  -0.14102  -4.98351
H    -1.28773  -0.81466  -4.03787
H     0.26308  -1.64583  -4.05095
C     0.20684   0.10305  -2.84391
C     0.71668   1.38095  -2.94332
H     0.79744   1.83443  -3.91810
C     1.11791   2.14700  -1.82415
C     1.59723   3.55193  -2.07583
H     1.96199   3.66134  -3.09326
H     2.38178   3.82528  -1.37206
H     0.76395   4.23946  -1.93342
N     1.09245   1.66012  -0.61557
C     1.42952   2.45299   0.49666
C     2.63861   2.25916   1.16353
H     3.35113   1.54096   0.77955
C     2.91616   2.96736   2.31733
H     3.85375   2.80330   2.82925
C     2.00631   3.88210   2.83519
C     2.32325   4.63694   4.09090
H     1.44674   5.16226   4.46101
H     3.10750   5.37002   3.90206
H     2.68094   3.96058   4.86529
C     0.80637   4.07504   2.16060
H     0.08292   4.77717   2.54991
C     0.51541   3.37737   1.00363
H    -0.43615   3.50272   0.50360
O     0.06302   0.52732   1.71021
C     0.09337   0.64806   4.07948
H     0.67664   0.30937   4.92920
H    -0.93705   0.30856   4.18364
H     0.08047   1.73700   4.04552
C     0.64283   0.12563   2.77860
C     1.72103  -0.73433   2.75589
H     2.15673  -1.04775   3.69095
C     2.27532  -1.25479   1.56309
C     3.41145  -2.23439   1.69279
H     3.94179  -2.09086   2.62984
H     4.10446  -2.13724   0.85892
H     3.00746  -3.24619   1.67843
N     1.83612  -0.89679   0.38972
C     2.34794  -1.47278  -0.78748
C     1.93386  -2.74621  -1.18359
H     1.24871  -3.29523  -0.55090
C     2.35241  -3.26325  -2.39350
H     2.01372  -4.24373  -2.69660
C     3.19419  -2.54108  -3.23420
C     3.64653  -3.11981  -4.54075
H     4.48269  -3.80084  -4.37899
H     3.97410  -2.33697  -5.22029
H     2.84493  -3.68432  -5.01210
C     3.61003  -1.28022  -2.82761
H     4.26279  -0.70209  -3.46614
C     3.19653  -0.74644  -1.62030
H     3.51804   0.24325  -1.32355
O    -1.37772   0.86181  -0.28582
