34

Re    0.00000   0.00000   0.00000
S     0.64617   1.60314  -1.92796
N    -1.81533  -0.12820  -1.42120
O    -4.64634  -1.50533   0.82822
H    -5.09219  -1.75540   1.64705
N    -1.93104   0.97878  -2.20812
H    -2.86518   1.25140  -2.50180
N    -1.20483   2.89788  -3.23649
H    -2.15602   3.19910  -3.37388
H    -0.48950   3.60165  -3.31835
C    -2.73926  -2.08873  -0.46788
C     1.46952   0.59280   1.12068
C    -3.49160  -3.53579   1.31284
H    -4.16460  -3.75650   2.12805
C    -0.92050   1.84253  -2.43939
O    -2.35870  -5.53100   1.81142
H    -1.56931  -6.03222   1.57132
C    -3.64742  -2.38135   0.56460
C    -2.86212  -0.85811  -1.24855
C    -0.65635  -1.14935   1.41815
C     1.06386  -1.38756  -0.83079
O    -1.04235  -1.78560   2.29472
C    -1.56825  -4.15114   0.00820
H    -0.76448  -4.83748  -0.21328
O     2.29564   1.05757   1.75961
C    -1.70915  -2.99379  -0.72548
H    -1.03321  -2.79429  -1.54184
O     1.69534  -2.19553  -1.35122
C    -2.45391  -4.42202   1.04813
C    -4.20690  -0.51829  -1.82418
H    -4.58289   0.41231  -1.39496
H    -4.91761  -1.30241  -1.58801
H    -4.15278  -0.42176  -2.91087
O    -0.96685   1.24201   0.49510
