22

Fe    0.00000   0.00000   0.00000
O    -0.07488   2.19370   1.87469
O     1.79510  -1.19258   1.91971
O    -2.37829   2.22629  -2.90708
O    -0.81589   3.41729  -1.80890
C    -0.06524   1.33987   1.12016
C     1.09044  -0.74795   1.14028
C     0.93176   1.18596  -1.65347
H     1.49766   2.08868  -1.49663
C     1.45920  -0.12659  -1.74110
H     2.49592  -0.39388  -1.61850
C     0.42755  -0.98957  -2.18174
H     0.53343  -2.03471  -2.41686
C    -0.72712  -0.21091  -2.40203
H    -1.67121  -0.55661  -2.78799
C    -0.42771   1.13988  -2.09422
C    -1.32540   2.28143  -2.32258
C    -1.60766   4.58246  -1.98890
H    -1.08364   5.38686  -1.47953
H    -2.60001   4.43574  -1.55773
H    -1.71666   4.80707  -3.05202
O    -1.36191  -0.75725   0.54248
