46

Ti    0.00000   0.00000   0.00000
Cl    0.58689   1.53620  -1.37771
Cl    1.64323  -1.48548  -0.17800
N    -1.14289  -1.29232  -0.89491
N    -1.71749   0.51058   0.76737
C    -1.65686  -3.65157  -0.34039
H    -1.18109  -3.86760  -1.29438
H    -2.70669  -3.93790  -0.39414
H    -1.18522  -4.24823   0.43777
C    -1.51441  -2.19395   0.00353
C    -1.81331  -1.77716   1.30993
H    -2.05565  -2.53080   2.04606
C    -2.09778  -0.43404   1.61161
C    -2.85618  -0.12112   2.87189
H    -2.79674   0.94069   3.10049
H    -2.43029  -0.68981   3.69594
H    -3.90383  -0.40404   2.77288
C    -1.21691  -1.51988  -2.27318
C    -0.13032  -1.24333  -3.10420
H     0.80741  -0.91239  -2.67249
C    -0.24116  -1.42476  -4.47018
H     0.61184  -1.21600  -5.09902
C    -1.42396  -1.87035  -5.04789
C    -2.50737  -2.13125  -4.21521
H    -3.43909  -2.47018  -4.64505
C    -2.41132  -1.96198  -2.84931
H    -3.26657  -2.14854  -2.21472
C    -1.54626  -2.05914  -6.52844
H    -0.58812  -1.91342  -7.01958
H    -2.25872  -1.34582  -6.94188
H    -1.90883  -3.06019  -6.75701
C    -2.25769   1.80265   0.78295
C    -3.63666   1.98703   0.67268
H    -4.28138   1.12183   0.60190
C    -4.17019   3.26091   0.62563
H    -5.23992   3.38356   0.53469
C    -3.35212   4.38088   0.69102
C    -1.97729   4.19006   0.80127
H    -1.32752   5.05118   0.85585
C    -1.42765   2.92439   0.84252
H    -0.35647   2.79495   0.94751
C    -3.92104   5.76543   0.64875
H    -4.99794   5.74162   0.50417
H    -3.47157   6.33555  -0.16268
H    -3.70700   6.28962   1.57951
O     0.68047   0.46872   1.42820
