20

Au    0.00000   0.00000   0.00000
S    -1.51446   1.52883   0.96704
O    -2.63227   2.25103   4.12475
N    -3.66613   2.91853   4.68616
C    -3.10895   1.40307   3.19178
C    -4.46725   1.52250   3.13471
C    -4.76713   2.50565   4.11721
C    -2.14545   0.58512   2.42805
C    -0.44139   2.72042   1.82188
C    -6.09751   3.03800   4.49196
H    -5.14984   0.99614   2.50247
H    -1.28735   0.30995   3.03933
H    -2.62741  -0.30013   2.01902
H     0.00962   3.34193   1.05476
H    -1.05381   3.32759   2.48236
H     0.32719   2.19851   2.38263
H    -6.76838   2.22136   4.75080
H    -6.53020   3.58057   3.65246
H    -5.99648   3.71089   5.33789
O     1.06667  -1.07974  -0.64722
