70

Pd    0.00000   0.00000   0.00000
Cl    0.36424  -1.26648   1.85926
P     2.07438  -0.63169  -0.51648
P    -0.41131   1.24263  -1.80791
O     3.14698   2.26628   0.09618
O     0.70888  -2.62923  -2.09287
O    -3.12047  -1.39394  -3.13456
O    -0.80576   4.85774  -0.02138
C     2.84567  -0.01527  -2.07944
H     3.38616   0.89977  -1.82928
H     3.56377  -0.76487  -2.42222
C     1.82473   0.26501  -3.18220
H     2.35639   0.36149  -4.13320
H     1.14865  -0.59120  -3.25485
C     1.01962   1.54421  -2.93308
H     0.62647   1.93846  -3.87594
H     1.66489   2.30133  -2.48089
C     3.22677  -0.01710   0.78164
H     3.10375  -0.66224   1.65439
H     4.26064  -0.05297   0.42880
C     2.85455   1.40600   1.17756
H     1.77061   1.45557   1.43015
H     3.42925   1.71269   2.06444
C     3.28911   3.62244   0.46986
H     4.04293   3.70504   1.26848
H     2.33850   4.01111   0.86277
C     3.73803   4.41851  -0.74557
H     3.87000   5.46219  -0.47545
H     2.99914   4.35053  -1.53966
H     4.68040   4.02593  -1.11869
C     2.42224  -2.44050  -0.46317
H     3.24797  -2.68106  -1.13712
H     2.68279  -2.71240   0.56069
C     1.16408  -3.18758  -0.87405
H     1.37993  -4.25827  -1.00468
H     0.39175  -3.07631  -0.09647
C    -0.09946  -3.52839  -2.83205
H    -1.03185  -3.73336  -2.28641
H     0.44439  -4.48150  -2.93646
C    -0.40655  -2.96650  -4.21091
H    -0.81146  -3.75737  -4.83703
H     0.50500  -2.59016  -4.66890
H    -1.14142  -2.17071  -4.14865
C    -1.63300   0.45919  -2.94032
H    -2.30689   1.21133  -3.35839
H    -1.09075  -0.01838  -3.76010
C    -2.42688  -0.60924  -2.19344
H    -1.72454  -1.24325  -1.59923
H    -3.12900  -0.14101  -1.48930
C    -3.98546  -2.33532  -2.53526
H    -4.76243  -1.81111  -1.95859
H    -3.41819  -2.96680  -1.83356
C    -4.61244  -3.18529  -3.62764
H    -5.29307  -3.90906  -3.18860
H    -3.83816  -3.71067  -4.18033
H    -5.16119  -2.55151  -4.31866
C    -1.10605   2.91951  -1.54283
H    -1.08399   3.46917  -2.48927
H    -2.13914   2.80222  -1.20384
C    -0.29251   3.62080  -0.45161
H    -0.30880   2.98790   0.44872
H     0.74799   3.72718  -0.78899
C    -0.93651   5.87175  -0.99500
H    -1.35635   6.71320  -0.43820
H    -1.66165   5.57798  -1.76732
C     0.37607   6.29634  -1.65215
H     0.21132   7.20066  -2.23143
H     0.75217   5.52582  -2.32173
H     1.12507   6.49856  -0.89054
O    -1.46804   0.51090   0.55347
