62

Au    0.00000   0.00000   0.00000
P    -1.05052  -2.97474   0.21115
P     1.18326  -1.59393  -1.01829
N     1.87744  -5.13436   0.12871
C     0.43942  -3.19030  -0.68180
C     1.23708  -4.23025  -0.18658
C    -1.01366  -2.40534   1.93502
C    -2.17731  -2.42510   2.69824
H    -3.09785  -2.79872   2.26838
C    -2.13872  -1.97112   4.00332
H    -3.04202  -1.96334   4.59502
C    -0.94652  -1.52321   4.54996
H    -0.92608  -1.15757   5.56545
C     0.22129  -1.55346   3.80490
H     1.15351  -1.22599   4.24003
C     0.19014  -1.99731   2.49662
H     1.09954  -2.04191   1.90603
C    -2.17423  -1.95779  -0.77129
C    -3.10061  -1.08777  -0.20519
H    -3.15450  -0.96128   0.86536
C    -3.91675  -0.33612  -1.03032
H    -4.62177   0.35336  -0.59229
C    -3.81374  -0.44767  -2.40801
H    -4.44571   0.15280  -3.04515
C    -2.89603  -1.32031  -2.97066
H    -2.81045  -1.40567  -4.04407
C    -2.07782  -2.08020  -2.15571
H    -1.35455  -2.76183  -2.58432
C    -1.79486  -4.61647   0.34172
C    -2.75709  -5.05503  -0.56042
H    -3.12605  -4.38517  -1.32547
C    -3.24025  -6.34797  -0.46611
H    -3.99125  -6.69167  -1.16208
C    -2.76009  -7.20024   0.51500
H    -3.13759  -8.20971   0.58126
C    -1.79617  -6.76352   1.41042
H    -1.41934  -7.43104   2.17047
C    -1.31215  -5.47184   1.32886
H    -0.55729  -5.12077   2.02012
C     2.91607  -1.73791  -0.51597
C     3.38457  -0.95898   0.53630
H     2.72152  -0.23811   1.00165
C     4.68923  -1.10485   0.97045
H     5.05531  -0.49964   1.78678
C     5.52268  -2.02620   0.35742
H     6.54027  -2.14154   0.70001
C     5.05652  -2.79928  -0.69457
H     5.70870  -3.51694  -1.16934
C     3.75523  -2.65850  -1.13697
H     3.38529  -3.25868  -1.95655
C     1.32059  -1.52005  -2.82764
C     1.52271  -0.26760  -3.39764
H     1.58125   0.60022  -2.75132
C     1.63895  -0.14601  -4.76911
H     1.79479   0.82539  -5.21472
C     1.54929  -1.27287  -5.57190
H     1.63635  -1.17737  -6.64420
C     1.34458  -2.52066  -5.00523
H     1.27499  -3.39602  -5.63476
C     1.22771  -2.64882  -3.63307
H     1.06165  -3.61887  -3.18079
O    -0.97210   1.01028   0.86997
