60

Pt    0.00000   0.00000   0.00000
Cl    0.44317   1.92356   1.12135
S    -0.45370  -2.05429  -0.87210
O     0.08905  -2.34874  -2.19857
N     1.99779   1.34682  -1.82244
N     0.09904   1.08776  -2.79516
C     0.76907   0.83434  -1.65489
C     2.10322   1.92491  -3.05821
H     3.00893   2.38184  -3.40019
C     0.90725   1.76508  -3.67026
H     0.56212   2.09836  -4.62721
C     3.04817   1.29287  -0.86417
C     3.67431   0.07047  -0.61757
C     4.69280   0.03036   0.32203
H     5.18045  -0.91146   0.52849
C     5.09730   1.17038   1.00115
C     4.47424   2.37561   0.71185
H     4.78503   3.26960   1.23205
C     3.44954   2.46275  -0.21748
C     3.28535  -1.16022  -1.38014
H     3.88984  -2.00740  -1.06811
H     3.42881  -1.00770  -2.45002
H     2.23413  -1.40568  -1.22552
C     6.17311   1.09996   2.04046
H     6.74617   2.02367   2.06996
H     6.84756   0.26871   1.84949
H     5.72315   0.95252   3.02231
C     2.76774   3.76755  -0.48285
H     2.76293   4.01333  -1.54295
H     3.26089   4.56903   0.05900
H     1.73588   3.69779  -0.13886
C    -1.22738   0.66704  -3.08954
C    -1.43072  -0.27239  -4.10664
C    -2.72816  -0.68073  -4.37348
H    -2.89652  -1.41448  -5.14823
C    -3.81387  -0.18094  -3.66614
C    -3.58306   0.76561  -2.68065
H    -4.41713   1.17322  -2.12858
C    -2.30113   1.20863  -2.37932
C    -0.28838  -0.88023  -4.85897
H    -0.66032  -1.51961  -5.65466
H     0.29658  -1.48979  -4.17118
H     0.36595  -0.12949  -5.29459
C    -5.20374  -0.64085  -3.98351
H    -5.58593  -0.09824  -4.84836
H    -5.87388  -0.46017  -3.14703
H    -5.21436  -1.70167  -4.22417
C    -2.10612   2.23991  -1.31438
H    -1.28701   2.91529  -1.55058
H    -1.87174   1.75652  -0.35833
H    -3.01511   2.81894  -1.17582
C     0.06224  -3.44155   0.18523
H    -0.21237  -4.36126  -0.31785
H    -0.43070  -3.33416   1.14362
H     1.13902  -3.38650   0.30686
C    -2.23357  -2.41083  -0.92985
H    -2.68976  -1.71919  -1.63047
H    -2.62049  -2.25460   0.07037
H    -2.37491  -3.43243  -1.26183
O    -0.72422  -0.65443   1.33031
