37

Ti    0.00000   0.00000   0.00000
Cl    0.22139   1.26502   1.71990
Cl    0.22729   1.59424  -1.44812
C    -1.33986  -1.68386   0.77666
C    -0.92920  -2.01152  -0.54332
H    -0.39730  -2.90706  -0.83940
C    -1.48893  -1.05762  -1.42603
H    -1.43660  -1.08655  -2.50769
C    -2.23772  -0.13725  -0.65980
H    -2.84957   0.66466  -1.05332
C    -2.14250  -0.51749   0.69810
H    -2.68925  -0.07178   1.52139
C    -1.03144  -2.46628   2.02804
H    -1.44498  -1.91256   2.88375
C    -1.65227  -3.85119   2.03569
C    -2.62134  -4.23268   1.11905
H    -2.95056  -3.53770   0.36028
C    -3.17613  -5.50073   1.17298
H    -3.92701  -5.78578   0.45123
C    -2.77246  -6.39918   2.14405
H    -3.20408  -7.38812   2.18275
C    -1.81492  -6.02050   3.07042
H    -1.49860  -6.71289   3.83627
C    -1.26127  -4.75506   3.01779
H    -0.51446  -4.46171   3.74104
C     0.47883  -2.51811   2.18013
C     1.23222  -3.48684   1.52581
H     0.73611  -4.25241   0.94558
C     2.61151  -3.48870   1.63256
H     3.18709  -4.24496   1.11972
C     3.25347  -2.52150   2.38732
H     4.33056  -2.51890   2.46003
C     2.50986  -1.56048   3.05073
H     3.00321  -0.80925   3.64966
C     1.12824  -1.56036   2.95202
H     0.55056  -0.82406   3.49676
O     1.52350  -0.60173  -0.19843
