44

I     1.37470   1.99566  -0.73916
Zn    0.00000   0.00000   0.00000
N    -2.59333   1.30243  -1.05824
N    -1.98781   0.81077   0.02700
C    -2.86332   1.79005  -3.44161
N    -1.51934  -0.11201  -2.68808
C    -4.54929   0.01055  -2.96541
H    -3.93533  -0.42714  -2.19447
C    -1.70981  -0.80065  -3.83014
H    -2.29838  -0.41899  -4.63762
C    -0.91333   4.69618  -4.76087
H     0.02870   5.19598  -4.59631
C    -3.73145   1.93736  -0.71807
H    -4.34902   2.43030  -1.43904
C    -0.41747  -1.92794  -2.45930
H     0.20529  -2.65421  -1.97378
C    -4.56857   2.79061  -5.42125
H    -5.22638   3.17920  -6.18564
C    -4.96639   1.67611  -4.69217
C    -1.23565   3.61016  -4.00423
H    -0.51839   3.29724  -3.26283
N    -0.71417  -0.78776  -1.86223
C    -4.09975   1.15633  -3.68004
C    -3.34985   3.41825  -5.19602
C    -2.46522   2.91790  -4.18312
C    -6.21491   1.04939  -4.93838
H    -6.84782   1.46575  -5.70806
C    -1.78792   5.17864  -5.75426
H    -1.50597   6.04064  -6.33900
C    -2.97582   4.55221  -5.96260
H    -3.66489   4.90196  -6.71725
C    -2.75793   1.09744   1.06150
H    -2.48685   0.77967   2.04975
C    -1.95698   1.23793  -2.36610
H    -1.04311   1.84280  -2.28867
C    -6.60348  -0.04268  -4.22775
H    -7.55395  -0.51719  -4.41716
C    -5.75495  -0.56428  -3.23137
H    -6.06885  -1.43306  -2.67273
C    -1.02135  -1.98503  -3.71522
H    -0.95881  -2.77447  -4.43390
C    -3.87737   1.81666   0.64372
H    -4.67216   2.19665   1.24997
O     0.02129  -1.25578   1.07007
