51

Hg    0.00000   0.00000   0.00000
Cl    2.19161   0.06438  -0.63288
N    -1.33726  -1.04850  -1.82792
N    -1.57630   1.60038  -1.06122
C    -2.36940  -0.32823  -2.22867
C    -3.36231  -0.84654  -3.08997
H    -4.18738  -0.21689  -3.38595
C    -3.25955  -2.13660  -3.52885
H    -4.00329  -2.56495  -4.18537
C    -2.16550  -2.92279  -3.11571
C    -1.98233  -4.26080  -3.51707
H    -2.71256  -4.70882  -4.17506
C    -0.90081  -4.97266  -3.07834
H    -0.76299  -5.99784  -3.38718
C     0.04284  -4.37999  -2.22091
H     0.88970  -4.95985  -1.88711
C    -0.10417  -3.08494  -1.81176
H     0.61850  -2.61470  -1.15464
C    -1.20936  -2.32168  -2.24520
C    -2.48325   1.04612  -1.76063
H    -3.37683   1.58945  -2.07872
C    -1.72486   2.89348  -0.55784
C    -0.70764   3.82107  -0.84074
C    -0.81904   5.10701  -0.33829
H    -0.05858   5.83700  -0.56644
C    -1.89705   5.46767   0.44903
H    -1.97463   6.47422   0.83214
C    -2.87230   4.53730   0.75023
H    -3.69932   4.82649   1.38023
C    -2.81874   3.24100   0.25546
C    -3.87897   2.24886   0.67494
H    -3.63998   1.25967   0.27135
C    -5.25231   2.66693   0.14127
H    -5.23223   2.78603  -0.94106
H    -5.56407   3.61248   0.57792
H    -5.99453   1.91276   0.39233
C    -3.90628   2.10349   2.19802
H    -2.93707   1.76306   2.55335
H    -4.64951   1.36226   2.48197
H    -4.15028   3.04284   2.68721
C     0.44000   3.44471  -1.74735
H     0.44285   2.35447  -1.87369
C     0.23906   4.07645  -3.12759
H     1.04669   3.78274  -3.79355
H     0.22750   5.16169  -3.05314
H    -0.70416   3.75192  -3.56363
C     1.78957   3.84458  -1.15196
H     2.59179   3.42366  -1.75275
H     1.88369   3.45343  -0.14119
H     1.91284   4.92431  -1.12379
O    -1.01016  -0.47035   1.21690
