52

C     2.53843   1.63049  -0.27717
C     3.83635   1.60254  -0.79788
C     3.98790   0.30303  -1.24988
C    -0.85499  -1.65381  -2.40558
C    -0.34842  -2.43834  -3.44659
C     0.98708  -2.61331  -3.12386
C     2.64004  -2.47891   2.34397
C     2.51010  -3.81985   1.94899
C     2.36423  -3.73549   0.57404
C    -0.91166  -1.34935   1.95352
C    -1.87975  -0.91635   1.00346
H    -2.57217  -1.64267   0.59199
C    -2.10558   0.44433   0.76197
H    -2.94956   0.75173   0.15299
C    -1.32079   1.43754   1.40571
C    -0.26965   0.99907   2.22199
H     0.32898   1.72663   2.75859
C    -0.09274  -0.37487   2.52128
H     0.63076  -0.64655   3.27690
C    -1.66879   2.88141   1.24223
H    -2.71637   3.03643   1.49743
H    -1.53399   3.18359   0.20301
H    -1.04717   3.51439   1.86946
C    -0.87008  -2.78652   2.40649
H     0.08503  -2.96016   2.91155
C    -1.00264  -3.76890   1.24045
H    -0.38062  -3.45669   0.40090
H    -2.03213  -3.83705   0.89696
H    -0.68934  -4.76245   1.55068
C    -1.98713  -3.01054   3.43256
H    -1.96183  -4.03941   3.78105
H    -2.96137  -2.81689   2.98917
H    -1.85722  -2.35151   4.28784
N     1.96405   0.43776  -0.40184
N     2.84657  -0.36978  -1.00737
N     0.10353  -1.39263  -1.51540
N     1.23078  -1.97779  -1.95952
N     2.55637  -1.66869   1.30375
N     2.39638  -2.43558   0.21969
B     2.56190  -1.85866  -1.19769
H     3.42773  -2.40478  -1.77855
Br    1.72804   3.11212   0.47561
Br    5.07028   2.99902  -0.85916
Br    5.49155  -0.42825  -2.05596
Br   -2.61335  -1.08158  -2.28826
Br   -1.27050  -3.09530  -4.92733
Br    2.24773  -3.55155  -4.11094
Br    2.92733  -1.85488   4.08150
Br    2.48941  -5.35440   3.02205
Br    2.10597  -5.11156  -0.65480
Ru    0.00000   0.00000   0.00000
O    -0.24638   1.04809  -1.25032
