68

Pt    0.00000   0.00000   0.00000
P     2.13354  -0.72074  -0.60262
P    -1.17276  -1.94098   0.32301
Cl   -1.97418   1.09837   0.50233
C     1.31619  -1.57035   2.34204
H     0.61088  -0.83120   1.92715
H     1.13763  -1.62006   3.42025
C     2.71277  -1.04589   2.13221
C     3.17008  -0.57006   0.89386
C     4.42733   0.02265   0.82061
H     4.77135   0.44054  -0.11073
C     5.24514   0.11458   1.93113
H     6.21420   0.58376   1.84864
C     4.81325  -0.38993   3.14366
H     5.44347  -0.32900   4.01832
C     3.55298  -0.95055   3.23575
H     3.20462  -1.30980   4.19463
C     1.04595  -2.94124   1.77471
C    -0.04341  -3.24842   0.94295
C    -0.23014  -4.57155   0.54422
H    -1.06762  -4.82720  -0.08613
C     0.63778  -5.57420   0.93375
H     0.46911  -6.58975   0.60767
C     1.71900  -5.26804   1.74144
H     2.40627  -6.04113   2.05042
C     1.90672  -3.96478   2.16007
H     2.73996  -3.72504   2.80556
C     2.82377   0.47129  -1.86742
H     3.00964   1.35950  -1.25187
C     2.56200  -2.48657  -1.13964
H     1.78065  -3.08956  -0.66753
C     4.09913   0.11067  -2.63153
H     3.86573  -0.43083  -3.54435
H     4.79179  -0.48662  -2.04500
H     4.60971   1.02852  -2.92116
C     1.70569   0.83293  -2.84837
H     1.99534   1.70421  -3.43265
H     0.78857   1.08162  -2.30456
H     1.49548   0.01695  -3.53745
C     3.90438  -2.98855  -0.61536
H     4.05809  -4.01114  -0.95838
H     3.93143  -2.98993   0.47106
H     4.73129  -2.38334  -0.97780
C     2.46876  -2.71213  -2.64742
H     1.66284  -2.13493  -3.09016
H     2.27844  -3.76607  -2.84732
H     3.40092  -2.45006  -3.13707
C    -2.52443  -1.92820   1.60694
H    -3.25326  -1.20150   1.23376
C    -2.02885  -2.59956  -1.18916
H    -2.46616  -3.58485  -1.00074
C    -1.99819  -1.41847   2.94440
H    -1.54720  -0.43556   2.82229
H    -1.26988  -2.10894   3.36594
H    -2.82283  -1.32054   3.64830
C    -3.17933  -3.29581   1.77692
H    -3.66724  -3.63110   0.86523
H    -3.93839  -3.23418   2.55505
H    -2.44652  -4.04240   2.07997
C    -0.99915  -2.69319  -2.30713
H    -1.47235  -2.97924  -3.24489
H    -0.22843  -3.42303  -2.07028
H    -0.53252  -1.71434  -2.43612
C    -3.13127  -1.61394  -1.57012
H    -2.73932  -0.59630  -1.56245
H    -3.96978  -1.66144  -0.87995
H    -3.50166  -1.83454  -2.56986
O     0.81769   1.41409   0.23286
