66

Pt    0.00000   0.00000   0.00000
C    -0.20608   0.56561  -1.99426
H     0.06501  -0.35039  -2.54686
P     1.59674   1.57991   0.10478
P    -1.86553  -1.23751  -0.46275
C     0.73012   1.64247  -2.46686
C     1.59402   2.27998  -1.57144
C     2.41083   3.32286  -1.99464
H     3.04092   3.84090  -1.28654
C     2.41417   3.70436  -3.32294
H     3.04606   4.51609  -3.65252
C     1.62150   3.02433  -4.23463
H     1.64987   3.29535  -5.28017
C     0.78849   2.00526  -3.81086
H     0.17749   1.47881  -4.53096
C    -1.66033   0.79891  -2.26161
C    -2.56841  -0.15021  -1.75006
C    -3.91450  -0.08176  -2.07109
H    -4.60608  -0.81774  -1.68755
C    -3.52509   1.94194  -3.28347
H    -3.90000   2.78068  -3.85218
C    -2.17303   1.86432  -2.99323
H    -1.51615   2.65019  -3.33512
C     1.39607   3.03640   1.22534
H     2.07171   3.84073   0.90847
C     3.27782   0.85026   0.37640
H     3.26368   0.52835   1.42579
C    -0.05539   3.47555   1.03777
H    -0.23743   3.77598   0.00571
H    -0.30122   4.30938   1.69282
H    -0.71902   2.63976   1.27291
C     1.67771   2.64276   2.67079
H     1.13052   1.73484   2.92276
H     1.36060   3.43562   3.34637
H     2.73866   2.46155   2.83187
C     3.33769  -0.39369  -0.50922
H     3.33161  -0.11442  -1.56310
H     2.46461  -1.02692  -0.30911
H     4.23648  -0.97328  -0.30709
C     4.46037   1.77901   0.13901
H     4.53567   2.04250  -0.91411
H     5.38326   1.27794   0.42836
H     4.37305   2.69091   0.72691
C    -3.16824  -1.19375   0.85637
H    -4.14993  -1.41014   0.41793
C    -1.85928  -2.98188  -1.11427
H    -1.60411  -3.60863  -0.25061
C    -2.85305  -2.20252   1.95573
H    -2.95055  -3.22692   1.60101
H    -3.53659  -2.06701   2.79252
H    -1.83754  -2.04851   2.31819
C    -3.15310   0.23071   1.40736
H    -3.39988   0.95322   0.62910
H    -2.15522   0.45424   1.79346
H    -3.86703   0.33896   2.22200
C    -0.73720  -3.10171  -2.14223
H    -0.60992  -4.13752  -2.45313
H     0.20333  -2.75264  -1.71278
H    -0.96480  -2.50518  -3.02533
C    -3.19500  -3.42772  -1.69479
H    -3.46111  -2.81417  -2.55351
H    -3.99054  -3.36393  -0.95556
H    -3.12558  -4.46319  -2.02612
C    -4.39383   0.95338  -2.85793
H    -5.44436   1.00564  -3.10279
O     0.27885  -0.51223   1.54349
