59

Pd    0.00000   0.00000   0.00000
Cl    1.16723  -1.35499   1.45469
C    -0.82746   2.66033   1.19134
H    -0.54082   3.03679   0.21787
C    -0.87829   0.88697   2.63738
H    -0.59286  -0.14143   2.83547
C    -1.87831   2.94572   3.31637
H    -2.40788   3.54941   4.03842
C    -1.55790   1.62608   3.59093
H    -1.82815   1.16869   4.52982
C    -1.50168   3.46919   2.09023
H    -1.72925   4.48964   1.82542
N    -0.51533   1.39292   1.45761
C     2.78436   1.14392  -1.07947
C     2.73217   2.03653  -2.15118
H     3.01197   1.70226  -3.13992
C     2.49427   1.60532   0.20980
H     2.60697   0.94639   1.06284
C     2.06289   3.80518  -0.67382
H     1.78436   4.83657  -0.51676
C     2.35175   3.35033  -1.94890
H     2.30176   4.02551  -2.78957
C     2.15143   2.93615   0.40134
H     1.96160   3.29533   1.40352
C     1.60296  -0.68770  -3.01733
H     1.20423   0.31161  -2.82883
H     1.70417  -0.86814  -4.08841
N     3.26490  -0.17056  -1.27126
C     2.93710  -0.97716  -2.30786
C     4.26752  -0.64949  -0.33204
H     3.78264  -1.06443   0.55420
H     4.93023   0.16622  -0.04729
H     4.83709  -1.43731  -0.82214
C     0.06480  -1.46886  -1.28295
C     0.37428  -2.88946  -2.97058
C    -0.51140  -3.48548  -2.05576
C    -1.05111  -4.74060  -2.28980
H    -1.74940  -5.18897  -1.60076
C     0.76955  -3.54991  -4.12263
H     1.47036  -3.11020  -4.81307
C     0.24161  -4.80844  -4.33882
H     0.52948  -5.35640  -5.22262
C    -0.65667  -5.38885  -3.44488
H    -1.05078  -6.37038  -3.65901
C    -1.45026  -2.72759   0.13972
N    -0.68376  -2.56952  -1.03816
N     0.67702  -1.64453  -2.46194
C    -2.31982  -1.70531   0.52916
H    -2.50326  -0.85410  -0.13050
C    -2.84408  -2.94790   2.52025
H    -3.37617  -3.02927   3.45616
C    -1.29747  -3.86108   0.92633
H    -0.60406  -4.63161   0.62568
C    -3.00865  -1.82390   1.72623
H    -3.67966  -1.03517   2.03500
C    -1.99976  -3.96710   2.11417
H    -1.87051  -4.84211   2.73284
O     3.56298  -1.97796  -2.59854
O    -0.75012   0.88656  -1.17211
