34

Zn    0.00000   0.00000   0.00000
Cl   -0.58764  -2.06789  -0.44391
O     5.35437  -3.46409   3.95105
H     6.15960  -3.80349   4.37207
O     5.69870  -1.74633   5.33029
O    -2.38176   1.22777  -1.22397
N     0.43245   0.07508   2.21004
N    -1.57259   1.11531   0.81618
C     1.54985  -0.48452   2.79924
C     2.28101   0.17170   3.79663
H     1.98683   1.16012   4.11695
C     3.41069  -0.41885   4.31808
H     3.99642   0.07434   5.07907
C     3.82402  -1.67143   3.86532
C     3.10289  -2.32112   2.86413
H     3.43520  -3.28288   2.50729
C     1.98086  -1.72822   2.32681
H     1.41011  -2.21801   1.55170
C     5.04165  -2.26680   4.46365
C    -0.40400   0.80207   2.83564
H    -0.33989   0.99524   3.90814
C    -1.51523   1.39964   2.11566
C    -2.46030   2.22721   2.71112
H    -2.41110   2.45251   3.76391
C    -3.46223   2.75883   1.90798
H    -4.21138   3.40660   2.33756
C    -3.50361   2.46671   0.55854
H    -4.27407   2.88064  -0.07034
C    -2.51328   1.61979   0.03574
C    -3.28592   1.69037  -2.20861
H    -2.95688   1.23573  -3.14058
H    -3.24527   2.77905  -2.30051
H    -4.30792   1.37026  -1.98778
O     1.03937   1.13545  -0.59411
