48

Zn    0.00000   0.00000   0.00000
Cl    1.29419   1.68187  -0.60702
N    -2.07379  -0.25767   0.24284
N    -0.52458   0.66710   2.14215
N    -0.78970  -0.52056  -2.07077
C    -2.59823  -0.17254   1.45129
C    -3.88944  -0.66947   1.71667
H    -4.30335  -0.58127   2.70943
C    -4.59562  -1.27149   0.70453
H    -5.58822  -1.66089   0.87993
C    -4.01621  -1.40553  -0.57191
C    -4.63904  -2.04881  -1.67712
H    -5.63310  -2.44974  -1.54342
C    -3.99813  -2.16809  -2.86805
H    -4.47590  -2.66307  -3.70103
C    -2.67865  -1.66267  -3.05773
C    -1.95513  -1.78649  -4.25688
H    -2.40508  -2.28400  -5.10418
C    -0.68182  -1.27431  -4.32482
H    -0.09843  -1.35276  -5.22858
C    -0.13275  -0.64836  -3.19791
H     0.86709  -0.23764  -3.21408
C    -2.03444  -1.00536  -1.98940
C    -2.71988  -0.86947  -0.73934
C    -1.73415   0.41053   2.45670
H    -2.13945   0.55212   3.46044
C     0.39158   1.23767   2.99304
C     0.04103   2.16098   3.98637
H    -0.99056   2.46213   4.10057
C     1.01596   2.74222   4.76589
H     0.73840   3.48346   5.50107
C     2.36303   2.41750   4.59286
C     3.39730   3.04936   5.42042
C     3.19169   3.25724   6.78331
H     2.26885   2.92932   7.23957
C     4.17023   3.84908   7.55960
H     4.00111   3.99667   8.61640
C     5.36526   4.25152   6.98660
H     6.12756   4.71707   7.59355
C     5.57802   4.05458   5.63209
H     6.50635   4.37101   5.17960
C     4.60527   3.45474   4.85488
H     4.76760   3.32075   3.79579
C     2.70548   1.49284   3.60371
H     3.74049   1.21927   3.46663
C     1.74100   0.91871   2.80807
H     2.00493   0.19824   2.04820
O     0.41055  -1.55753   0.35783
