31

Hg    0.00000   0.00000   0.00000
Cl    0.67519  -0.03016   2.19454
N    -0.78900   5.07456   2.10547
C    -1.37156   6.07873   2.97562
C    -1.48816   3.93394   1.85755
C     0.46083   5.30370   1.56628
O     1.08197   6.31363   1.78152
N     0.97689   4.30170   0.74600
C     2.30200   4.56685   0.20630
C     0.36224   3.12128   0.42709
O     0.89281   2.30463  -0.31620
C    -0.95576   2.93984   1.02872
N    -1.64130   1.81789   0.78717
C    -2.83143   1.66483   1.33864
C    -3.58212   0.41172   1.06035
C    -3.36004   2.68079   2.17845
C    -4.69092   2.53995   2.82630
N    -2.68845   3.78747   2.42223
H    -1.56646   5.64411   3.95492
H    -2.31101   6.43021   2.55129
H    -0.66303   6.89961   3.05937
H     2.97367   4.83788   1.01928
H     2.25358   5.39590  -0.49923
H     2.64765   3.66641  -0.29423
H    -4.56495   0.63572   0.64895
H    -3.72133  -0.15499   1.98020
H    -3.02755  -0.19902   0.34703
H    -4.70978   1.65178   3.45553
H    -5.46922   2.42929   2.07297
H    -4.89442   3.41818   3.43133
O    -0.69701  -0.59441  -1.37235
