38

Pt    0.00000   0.00000   0.00000
Cl    0.81871   1.65754  -1.35911
C    -0.80949  -1.39432   1.19750
N    -0.72958  -1.42907   2.53436
C     0.02672  -0.50120   3.32806
H     0.82351  -0.08147   2.70770
H     0.46546  -1.01295   4.18357
H    -0.62193   0.30512   3.67723
C    -1.50203  -2.44569   3.02122
H    -1.58778  -2.65330   4.06765
C    -2.06617  -3.05776   1.95253
H    -2.72365  -3.90014   1.89587
N    -1.62890  -2.39304   0.84055
C    -1.97203  -2.74211  -0.52051
H    -1.40020  -2.06877  -1.17454
H    -3.04279  -2.57739  -0.67572
C    -1.61036  -4.17819  -0.80231
C    -0.26926  -4.54094  -0.86738
H     0.49222  -3.78179  -0.75578
C     0.08584  -5.85838  -1.08793
H     1.12006  -6.15628  -1.14585
F    -0.57589  -8.09081  -1.45310
C    -0.91384  -6.80241  -1.24179
C    -2.25340  -6.46570  -1.18469
H    -3.00548  -7.22744  -1.31379
C    -2.59490  -5.14358  -0.96017
H    -3.63814  -4.86581  -0.91543
C    -2.46239   2.26330  -0.70054
H    -3.07809   3.07632  -0.33448
H    -3.08633   1.45715  -1.07190
H    -1.77101   2.59336  -1.46758
S    -1.46281   1.61058   0.66982
O    -2.37946   1.22114   1.74046
C    -0.67497   3.16713   1.18246
H    -1.45037   3.88729   1.41394
H    -0.04616   3.49435   0.36299
H    -0.07411   2.96648   2.06277
O     1.12791  -1.09371  -0.50410
