23

Ir    0.00000   0.00000   0.00000
O     0.02556   2.59806  -1.50571
O    -0.02627  -1.70743  -2.48110
N    -0.01206  -1.80503   1.22910
H     0.82022  -1.70170   1.81550
H    -0.82647  -1.68546   1.83698
C    -0.03315  -3.09808   0.61282
C    -1.24191  -3.72064   0.33346
H    -2.17049  -3.24161   0.61031
C    -1.25740  -4.94235  -0.31227
H    -2.20402  -5.41502  -0.52813
C    -0.07555  -5.56850  -0.68869
C     1.12818  -4.93818  -0.39808
H     2.05854  -5.40714  -0.68187
C     1.15473  -3.71672   0.24738
H     2.09880  -3.23373   0.45678
C    -0.09817  -6.90102  -1.37070
H     0.77084  -7.02268  -2.01253
H    -0.99897  -7.01489  -1.96874
H    -0.08361  -7.69947  -0.62793
C     0.01486   1.58719  -0.96643
C    -0.01627  -1.04829  -1.54195
O     0.01260   0.81374   1.43533
