55

Pd    0.00000   0.00000   0.00000
P    -2.00762  -0.03416   1.06187
C    -3.62556   0.53566   0.22040
C    -1.53675   1.19595   2.46180
C    -0.32434  -0.72115  -4.09992
H    -0.40002  -1.79719  -4.15502
C    -2.22720  -1.78797   1.81196
C    -2.64545   1.61359   3.42455
H    -2.21477   2.21664   4.22426
H    -3.13242   0.75568   3.87840
H    -3.39981   2.21906   2.92870
C    -0.38623   0.54095   3.23811
H     0.09595   1.28403   3.87409
H     0.37677   0.15617   2.54210
H    -0.72969  -0.26086   3.88448
C    -0.91707   2.44442   1.80987
H    -0.39186   3.02228   2.57077
H    -1.65011   3.10165   1.35577
H    -0.17391   2.15488   1.04517
C    -0.16268   1.27662  -2.75347
H    -0.09641   1.75483  -1.76506
C    -3.03591  -1.86906   3.10649
H    -3.15995  -2.91726   3.37811
H    -4.02524  -1.43546   2.99111
H    -2.53347  -1.37634   3.93432
C    -0.16910   1.43064  -5.14717
H    -0.12405   2.03189  -6.04317
C    -0.11558   2.04132  -3.90222
H    -0.02855   3.11558  -3.83330
C    -2.89304  -2.67066   0.75086
H    -2.86539  -3.70885   1.08043
H    -2.34889  -2.60761  -0.19013
H    -3.93604  -2.41229   0.59607
C    -0.27269   0.05231  -5.24401
H    -0.30832  -0.42059  -6.21413
O    -0.45721  -2.15930  -1.60865
C    -0.26638  -0.11475  -2.84423
C    -4.90659   0.29186   1.01334
H    -5.74285   0.75300   0.48799
H    -4.85252   0.72937   2.00603
H    -5.12561  -0.76736   1.11019
C    -3.48876   2.03115  -0.07998
H    -4.26772   2.33417  -0.77879
H    -2.52439   2.23284  -0.54979
H    -3.60168   2.63806   0.81330
C    -0.82323  -2.38458   2.03076
H    -0.89662  -3.47105   2.04870
H    -0.37805  -2.07957   2.97282
H    -0.13770  -2.11992   1.20454
C    -0.30444  -0.97229  -1.64385
C    -3.70142  -0.15328  -1.14802
H    -4.47757   0.31885  -1.74913
H    -3.93572  -1.20842  -1.08146
H    -2.75234  -0.04336  -1.67564
O     1.62005   0.12572  -0.28659
