64

Ta    0.00000   0.00000   0.00000
Cl    1.21959  -1.65593   0.90842
O    -0.30904   5.92186  -3.81695
O    -2.12425  -3.88309   5.47981
N    -1.14509   1.66283  -0.32443
N    -1.47439  -0.14236   1.40341
C     0.12084  -1.93368  -3.27086
C    -0.72707  -0.94535  -2.89149
C    -1.34580  -1.32337  -1.60019
C    -0.83998  -2.69024  -1.33304
C     0.05000  -3.02200  -2.30097
C     1.01851  -1.97269  -4.45926
C    -1.03798   0.31617  -3.63131
C    -2.82266  -1.08066  -1.41064
C    -1.34345  -3.54437  -0.21370
C     0.85369  -4.26951  -2.43963
C     0.91884   6.60598  -3.87273
C    -0.44367   4.90178  -2.92340
C    -1.67367   4.24253  -2.92985
C    -1.91178   3.19261  -2.07180
C    -0.92300   2.75246  -1.18797
C     0.28909   3.43400  -1.16456
C     0.53302   4.49161  -2.02282
C    -2.28480   1.76575   0.41793
C    -2.46228   0.79592   1.34568
C    -1.62799  -1.07066   2.45228
C    -2.80861  -1.80234   2.60551
C    -2.93687  -2.72821   3.61681
C    -1.89573  -2.94265   4.52092
C    -0.72982  -2.19564   4.39283
C    -0.60476  -1.26948   3.37262
C    -1.11041  -4.14235   6.42000
H     0.77919  -1.17590  -5.15878
H     0.93888  -2.93091  -4.97134
H     2.05554  -1.84496  -4.14438
H    -0.39021   1.13421  -3.31184
H    -0.89279   0.17221  -4.70008
H    -2.06922   0.61813  -3.46477
H    -3.06848  -0.02234  -1.47399
H    -3.37207  -1.60957  -2.19163
H    -3.15384  -1.45729  -0.44619
H    -2.31746  -3.96575  -0.47061
H    -1.45111  -2.97192   0.70636
H    -0.66242  -4.36958  -0.02196
H     0.77444  -4.88977  -1.55108
H     0.51274  -4.85117  -3.29695
H     1.90274  -4.02254  -2.59939
H     0.81124   7.33970  -4.67033
H     1.74574   5.92976  -4.11267
H     1.13393   7.12421  -2.93225
H    -2.42968   4.57378  -3.62382
H    -2.86540   2.68644  -2.09909
H     1.04805   3.13560  -0.45530
H     1.48802   4.98971  -1.97198
H    -2.94808   2.61077   0.30188
H    -3.28535   0.77800   2.04532
H    -3.62140  -1.65481   1.90915
H    -3.84089  -3.30543   3.72828
H     0.08927  -2.31940   5.08301
H     0.29802  -0.68135   3.28979
H    -0.19532  -4.49968   5.93702
H    -1.50338  -4.92374   7.06877
H    -0.88258  -3.25546   7.02042
O     1.20494   0.48055  -1.01965
