64

Nb    0.00000   0.00000   0.00000
Cl    1.33274  -1.81652   0.81019
O     1.22999   1.36195   6.82130
O    -4.58389   3.06488  -4.48093
N    -0.89307  -0.03275   1.86191
N    -2.00076   0.28580  -0.40074
C     2.17921   1.26585   0.41328
C     2.16508   0.90837  -0.96213
C     1.10164   1.60875  -1.59914
C     0.41591   2.36409  -0.60266
C     1.08500   2.14880   0.64862
C     3.27887   0.92165   1.36962
C     3.19669   0.07420  -1.65487
C     0.90564   1.69749  -3.08132
C    -0.58093   3.45843  -0.83992
C     0.86804   2.99803   1.86468
C     0.52811   2.17852   7.72519
C     0.64104   1.05266   5.63129
C     1.36512   0.20623   4.78953
C     0.87015  -0.16661   3.55951
C    -0.37514   0.29316   3.12160
C    -1.09388   1.13833   3.97124
C    -0.59837   1.51627   5.20581
C    -2.24003  -0.24351   1.82813
C    -2.83235  -0.07058   0.62009
C    -2.63152   0.94371  -1.46688
C    -2.32201   0.68458  -2.79919
C    -2.95044   1.36685  -3.82697
C    -3.90856   2.33469  -3.54873
C    -4.22181   2.60483  -2.21521
C    -3.60039   1.92054  -1.19612
C    -4.34435   2.79981  -5.84145
H     3.02601   1.21734   2.38488
H     4.19373   1.43858   1.07287
H     3.47826  -0.14962   1.36070
H     3.60368  -0.67211  -0.97430
H     4.01676   0.70115  -2.01120
H     2.76071  -0.44065  -2.50987
H     1.69651   2.31172  -3.51696
H    -0.05570   2.14431  -3.32449
H     0.95338   0.70931  -3.53709
H    -0.06370   4.41942  -0.88934
H    -1.12091   3.31106  -1.77228
H    -1.30700   3.50662  -0.03004
H    -0.19384   3.15215   2.04913
H     1.30513   2.54489   2.75119
H     1.33139   3.97568   1.71249
H     1.16976   2.26921   8.59986
H    -0.42358   1.72581   8.02025
H     0.34283   3.17397   7.30925
H     2.32157  -0.15716   5.13091
H     1.43557  -0.84298   2.93796
H    -2.04825   1.52967   3.64800
H    -1.18892   2.17595   5.82206
H    -2.78057  -0.49096   2.73336
H    -3.89884  -0.15817   0.45300
H    -1.59834  -0.07901  -3.03814
H    -2.68489   1.12359  -4.84368
H    -4.96182   3.36073  -2.00497
H    -3.84467   2.15373  -0.16955
H    -3.30556   3.01023  -6.11664
H    -5.00391   3.46839  -6.39242
H    -4.58472   1.76296  -6.09716
O     0.01082  -0.95303  -1.34689
