68

Ta    0.00000   0.00000   0.00000
Cl   -1.51366   1.35691  -0.99772
N     0.98704  -1.54775   0.84903
N    -1.40020  -0.81989   1.23489
C     1.66376   2.47532   0.70052
C     0.88092   3.57234   0.51485
C    -0.29609   3.46157   1.35993
C    -0.23675   2.28958   2.04567
C     0.97378   1.55424   1.62710
C     3.03708   2.23874   0.15292
C     1.13164   4.74086  -0.37621
C    -1.36534   4.49907   1.40191
C    -1.12916   1.82616   3.15171
C     1.78486   0.86746   2.69847
C     4.48317  -3.98309   0.09582
C     3.57957  -3.55627  -1.05759
C     2.19591  -3.16703  -0.54706
C     2.31091  -2.04511   0.49508
C     3.17684  -2.53157   1.66367
C     4.57029  -2.87908   1.14581
C     0.26850  -2.32783   1.69568
C    -1.01763  -1.94108   1.89559
C    -2.82752  -0.51833   1.22015
C    -3.51415  -1.29567   0.08521
C    -4.95602  -0.82516  -0.07877
C    -5.73299  -0.98507   1.22472
C    -5.02604  -0.25420   2.36235
C    -3.59982  -0.77611   2.51932
H     3.77249   2.80538   0.72780
H     3.10642   2.55829  -0.88536
H     3.30328   1.18480   0.20090
H     2.01863   4.58532  -0.98406
H     1.27098   5.64830   0.21236
H     0.27816   4.89958  -1.03508
H    -1.89905   4.51964   0.45054
H    -0.93610   5.48672   1.56511
H    -2.07941   4.29344   2.19450
H    -0.81612   2.27340   4.09759
H    -2.16307   2.11209   2.97154
H    -1.07356   0.74529   3.25026
H     1.20773   0.08816   3.19265
H     2.08362   1.60242   3.44803
H     2.68566   0.42763   2.27845
H     5.48050  -4.21710  -0.28133
H     4.07971  -4.88771   0.55691
H     3.49086  -4.36901  -1.78104
H     4.02281  -2.69932  -1.56878
H     1.57365  -2.81494  -1.37380
H     1.70448  -4.03086  -0.09362
H     2.83120  -1.20417   0.02373
H     3.23547  -1.75948   2.43218
H     2.74578  -3.42506   2.11650
H     5.02876  -1.99194   0.70361
H     5.20052  -3.20408   1.97626
H     0.68478  -3.20498   2.16442
H    -1.69328  -2.49454   2.52773
H    -2.90144   0.55094   0.99370
H    -2.96191  -1.13440  -0.84530
H    -3.48828  -2.36354   0.31714
H    -4.95196   0.22609  -0.37348
H    -5.44193  -1.39452  -0.87360
H    -6.74529  -0.59488   1.10324
H    -5.81182  -2.04639   1.47226
H    -5.00198   0.81629   2.14856
H    -5.57505  -0.39861   3.29523
H    -3.65017  -1.84521   2.73174
H    -3.10610  -0.28316   3.35736
O     1.05622   0.05646  -1.26638
