67

Ta    0.00000   0.00000   0.00000
N    -0.08260  -2.22458   1.02628
N    -1.13813  -2.56895   1.79195
N    -2.48402  -0.72122  -0.09648
N    -3.06139  -1.16658   1.03097
N    -0.83024   0.56119   2.08236
N    -1.54594  -0.30479   2.82681
N    -0.04390   1.64191  -0.72029
B    -2.20802  -1.56913   2.24484
H    -2.89277  -2.06294   3.06773
C    -3.43387  -0.53608  -1.00514
C    -0.52673   1.60827   2.85170
C     0.24520   2.77704   2.36268
H     0.27023   2.74461   1.27734
H     1.26531   2.74802   2.74314
H    -0.21812   3.69887   2.70898
C    -1.05331   1.40590   4.12672
H    -0.97822   2.05953   4.97176
C    -1.21621   3.71998  -1.15737
H    -2.13660   3.14377  -1.20508
H    -1.27431   4.55056  -1.85617
H    -1.10821   4.11145  -0.14966
C    -0.12401   2.39258  -2.99502
H    -1.10403   1.97295  -3.19795
H     0.62677   1.63399  -3.20107
H     0.03880   3.25013  -3.64270
C    -2.41297  -0.51408   5.17270
H    -1.99803  -1.50623   5.33834
H    -3.46999  -0.62437   4.93758
H    -2.31634   0.06636   6.08639
C    -0.02613   2.80618  -1.51110
C    -4.67080  -0.87326  -0.44552
H    -5.63069  -0.83539  -0.91948
C     1.30007   3.56771  -1.30549
H     1.38681   3.91973  -0.28142
H     1.34902   4.42221  -1.97542
H     2.12922   2.89742  -1.51526
C    -2.12921  -4.62128   2.84614
H    -2.18928  -4.22543   3.85865
H    -1.86021  -5.67331   2.89585
H    -3.11275  -4.53204   2.38761
C    -5.34556  -1.71973   1.89971
H    -5.12117  -2.73593   2.21938
H    -6.35748  -1.69196   1.50448
H    -5.29022  -1.07095   2.77235
C     1.86641  -3.37844  -0.02213
H     2.40852  -2.43777   0.01427
H     1.61521  -3.57694  -1.06421
H     2.50858  -4.18112   0.33638
C    -3.13262  -0.05656  -2.37884
H    -2.06076  -0.11368  -2.55904
H    -3.45876   0.97664  -2.49755
H    -3.65905  -0.66369  -3.11334
C     2.39708  -0.34250   2.20638
H     3.44078  -0.24148   2.51475
H     2.14780  -1.40232   2.23833
H     1.78409   0.17276   2.94584
C    -1.69434   0.17996   4.07247
C     0.01053  -4.41242   1.42801
H     0.33916  -5.43204   1.42872
C    -1.10955  -3.89261   2.04657
C     0.62518  -3.32800   0.79568
C    -4.39352  -1.26887   0.85068
C     2.18382   0.24368   0.81470
H     2.87459  -0.24576   0.12038
H     2.48133   1.29409   0.83696
O     0.36311  -0.82621  -1.38131
