64

Re    0.00000   0.00000   0.00000
N    -1.83938   0.24688  -1.09081
N    -0.31190  -1.64405   0.52541
N    -4.07674   0.94791  -2.56084
O     0.11944   1.81258  -0.70853
O    -0.74242   3.50018  -1.88973
Br   -1.10210   1.03210   2.05520
P     2.17433   0.39145   1.00043
C     2.30141   0.31590   2.81059
C     1.55252  -0.64841   3.47670
H     0.87195  -1.27218   2.91039
C     1.66618  -0.78403   4.84706
H     1.07420  -1.52260   5.36579
C     2.53238   0.03527   5.55313
H     2.61375  -0.06222   6.62532
C     3.29430   0.98135   4.88741
H     3.97254   1.61594   5.43850
C     3.18771   1.12143   3.51545
H     3.78297   1.86032   2.99702
C     3.53827  -0.72237   0.55608
C     3.25289  -2.06164   0.31601
H     2.22225  -2.39296   0.32605
C     4.27963  -2.94692   0.04666
H     4.05677  -3.98388  -0.15350
C     5.59079  -2.49989   0.02584
H     6.39253  -3.18902  -0.19339
C     5.87728  -1.16930   0.28472
H     6.90025  -0.82322   0.27291
C     4.85554  -0.27807   0.55662
H     5.07880   0.76039   0.75899
C     2.64525   2.05439   0.48695
C     2.17092   3.15068   1.20543
H     1.63186   2.99819   2.13204
C     2.36492   4.42633   0.71006
H     1.98970   5.27640   1.26039
C     3.00955   4.61097  -0.50286
H     3.14010   5.60830  -0.89546
C     3.46065   3.51961  -1.22803
H     3.93789   3.66381  -2.18602
C     3.27366   2.23865  -0.74320
H     3.58898   1.38090  -1.32367
C    -0.76293   2.38379  -1.42420
C    -1.95194   1.44916  -1.65922
C    -3.07740   1.79384  -2.39665
H    -3.15074   2.77150  -2.85000
C    -3.95960  -0.24293  -1.99376
H    -4.78309  -0.92776  -2.13299
C    -2.84482  -0.61010  -1.25507
H    -2.74878  -1.58284  -0.79218
C    -0.65825  -2.89129   0.85178
C    -0.32320  -3.96818   0.00637
H     0.21935  -3.76044  -0.90389
C    -0.69990  -5.24642   0.34688
H    -0.44288  -6.06577  -0.30827
C    -1.41048  -5.50378   1.51890
C    -1.73788  -4.43501   2.35298
H    -2.29027  -4.62204   3.26209
C    -1.37447  -3.14639   2.03838
H    -1.63278  -2.31291   2.67441
C    -1.79571  -6.90002   1.88516
H    -2.71561  -6.91082   2.46462
H    -1.01107  -7.35058   2.49422
H    -1.92453  -7.51443   0.99758
O     0.76207  -0.48491  -1.38080
