69

Re    0.00000   0.00000   0.00000
N     1.25410  -0.28030   1.71464
N     1.03518  -0.94365  -1.05967
N     2.31112  -1.05404   1.99872
H     2.63532  -1.73852   1.33354
O    -0.49505   2.17008   3.53246
O    -0.69593   1.37553   1.45780
P     0.92705   2.21307  -0.52609
Cl   -1.33830  -1.60895   0.96051
C    -0.19325   3.61136  -0.81245
C     0.33324   4.76469  -1.39265
H     1.37500   4.79765  -1.68114
C    -0.47928   5.86285  -1.59889
H    -0.06964   6.75636  -2.04714
C    -1.81604   5.81740  -1.23335
H    -2.44833   6.67735  -1.39846
C    -2.33908   4.67193  -0.65844
H    -3.37967   4.63527  -0.37344
C    -1.53252   3.56741  -0.44567
H    -1.94199   2.67885   0.00859
C     2.00262   2.74284   0.83271
C     3.15998   2.00137   1.07175
H     3.43381   1.21668   0.37638
C     3.92937   2.25486   2.18957
H     4.82204   1.67530   2.37597
C     3.54070   3.24053   3.08522
H     4.13130   3.42361   3.97017
C     2.39341   3.97885   2.85205
H     2.08487   4.73740   3.55472
C     1.62105   3.73319   1.72947
H     0.71321   4.29405   1.55937
C     1.98595   2.22639  -2.00745
C     1.49477   1.55000  -3.12165
H     0.53019   1.06249  -3.05650
C     2.24084   1.49826  -4.28373
H     1.85943   0.97040  -5.14454
C     3.47985   2.11773  -4.34021
H     4.06630   2.07327  -5.24591
C     3.96777   2.79569  -3.23556
H     4.93117   3.28261  -3.28079
C     3.22465   2.85392  -2.06885
H     3.60996   3.38271  -1.20757
C    -0.17904   1.42313   2.62885
C     0.95402   0.44340   2.77513
C     1.86584   0.15009   3.82068
C     2.05222   0.61380   5.12298
H     1.39262   1.36617   5.52338
C     3.09226   0.07818   5.84469
H     3.26979   0.41167   6.85583
C     3.93576  -0.90096   5.30176
H     4.73653  -1.29355   5.91049
C     3.77189  -1.37503   4.01896
H     4.42209  -2.12990   3.60484
C     2.72485  -0.83722   3.27837
C     1.81484  -1.62983  -1.89349
C     3.13116  -1.22194  -2.18152
H     3.51583  -0.33449  -1.70213
C     3.89591  -1.93267  -3.07924
H     4.90097  -1.60100  -3.29679
C     3.39694  -3.06823  -3.71171
C     2.09492  -3.47750  -3.41968
H     1.69784  -4.35680  -3.90553
C     1.30985  -2.78156  -2.53231
H     0.29929  -3.08197  -2.30330
C     4.22435  -3.83985  -4.68903
H     5.22156  -3.41777  -4.77909
H     3.75205  -3.83101  -5.67060
H     4.31018  -4.87944  -4.37593
O    -1.19354   0.30269  -1.09833
