25

Pt    0.00000   0.00000   0.00000
O     1.43475   3.30287  -0.87087
N     0.91118   1.45790   1.26764
C     2.27519   1.84212   0.90700
C     2.33679   2.25656  -0.56478
H     0.91269   1.00433   2.18172
H     0.30347   2.27949   1.29849
H     2.92786   0.97860   1.04849
H     2.63174   2.66647   1.54163
H     2.03203   1.40658  -1.18639
H     3.36280   2.53998  -0.82844
H     1.68123   4.08480  -0.36397
Cl    0.99120  -1.51436   1.33848
N    -0.91137   1.45793  -1.26746
C    -2.27540   1.84212  -0.90689
C    -2.33713   2.25666   0.56483
O    -1.43512   3.30299   0.87092
H    -1.68116   4.08461   0.36372
H    -2.03248   1.40674   1.18654
H    -3.36315   2.54016   0.82836
H    -2.92805   0.97860  -1.04843
H    -2.63191   2.66645  -1.54155
H    -0.91283   1.00439  -2.18154
H    -0.30366   2.27952  -1.29820
O    -0.72635  -1.11013  -0.98108
