49

Pd    0.00000   0.00000   0.00000
P    -0.57424  -2.20703  -1.76488
N     0.46378  -1.91994  -0.57846
C     1.85199  -2.30694  -0.48573
H     2.09442  -3.14005  -1.16098
H     2.03600  -2.65153   0.54209
S     2.28015   0.44670  -0.04507
Cl   -2.08417  -0.80138   0.13277
C    -1.22616  -0.73184  -2.63762
C    -3.02749   0.53173  -3.59192
H    -4.06385   0.60005  -3.88721
C    -0.37217   0.36275  -2.80803
H     0.68962   0.28482  -2.55729
C     2.80466  -1.14830  -0.79616
H     2.82449  -0.94861  -1.86971
H     3.81798  -1.36200  -0.45474
C    -2.55088  -0.64574  -3.03981
H    -3.21719  -1.47967  -2.87585
C    -0.86095   1.53930  -3.35151
H    -0.20458   2.38906  -3.46751
C     0.74294  -2.50013  -4.26556
H     0.45278  -1.48154  -4.48273
C    -1.84577  -3.45012  -1.38409
C     2.43363   0.08977   1.73558
H     1.73259  -0.69764   2.03455
H     2.17006   1.02090   2.23565
H     3.46166  -0.18415   1.96231
C     0.70433  -4.41497  -2.81541
H     0.37208  -4.88035  -1.89561
C     0.33071  -3.10090  -3.08343
C    -2.61018  -4.00083  -2.40517
H    -2.47573  -3.65975  -3.42325
C    -1.96793  -3.92220  -0.08518
H    -1.35632  -3.48003   0.68887
C    -2.19141   1.62540  -3.73507
H    -2.57514   2.55036  -4.13794
C    -2.87748  -4.92320   0.19965
H    -2.97810  -5.28957   1.21041
C     1.47361  -5.12163  -3.72124
H     1.75844  -6.14139  -3.50771
C     1.87563  -4.51933  -4.90283
H     2.47359  -5.07047  -5.61311
C     1.50709  -3.21202  -5.17419
H     1.81592  -2.74416  -6.09747
C    -3.52823  -4.99333  -2.11249
H    -4.13491  -5.41434  -2.90097
C    -3.66402  -5.45159  -0.81194
H    -4.38135  -6.22720  -0.58784
O    -0.37489   1.53404   0.47820
