58

Pd    0.00000   0.00000   0.00000
P    -1.33389  -1.61507  -2.06656
S    -0.05161   0.88843   2.10917
O    -0.94913  -1.47277   3.06414
O     2.30564  -1.51764  -0.88022
O     0.59982  -2.98263  -1.17966
N     0.14040  -0.13305   4.48623
C    -1.56147  -1.91201   1.88809
C    -1.20701  -1.50886   0.60207
C    -1.89355  -2.15807  -0.44165
C    -2.90321  -3.08737  -0.23995
H    -3.42993  -3.51583  -1.08120
C    -3.22351  -3.44849   1.05788
H    -3.99913  -4.17462   1.24831
C    -2.54020  -2.87877   2.11524
H    -2.76129  -3.16100   3.13387
C    -0.30329  -0.32191   3.23469
C    -0.10651  -1.06136   5.56483
H    -0.70187  -1.89737   5.20989
H    -0.64359  -0.55568   6.37002
H     0.84124  -1.44006   5.95332
C     0.87528   1.06727   4.80997
H     0.21374   1.93622   4.83486
H     1.64161   1.25285   4.05523
H     1.34564   0.94116   5.78144
C    -2.54000  -0.34954  -2.55221
C    -2.43432   0.93541  -2.02359
H    -1.60048   1.20551  -1.36189
C    -3.38772   1.88808  -2.33503
H    -3.29324   2.88565  -1.93417
C    -4.45447   1.56283  -3.15769
H    -5.19600   2.30900  -3.40100
C    -4.57519   0.27840  -3.66382
H    -5.41165   0.02089  -4.29677
C    -3.62497  -0.67923  -3.35980
H    -3.71786  -1.68200  -3.75444
C    -1.39404  -2.91149  -3.33033
C    -1.26952  -2.50139  -4.65551
H    -1.23158  -1.44332  -4.88217
C    -1.20028  -3.44263  -5.66476
H    -1.10885  -3.12552  -6.69297
C    -1.24120  -4.79339  -5.35424
H    -1.18514  -5.52886  -6.14274
C    -1.34175  -5.20179  -4.03403
H    -1.35936  -6.25510  -3.79470
C    -1.41156  -4.26480  -3.01823
H    -1.47011  -4.57581  -1.98570
C     0.22868  -0.82614  -1.88128
H     0.56895  -0.13751  -2.65444
C     1.17917  -1.73743  -1.27071
C     1.30104  -3.96163  -0.41947
H     0.53328  -4.60506   0.02103
H     1.85681  -3.45081   0.37554
C     2.25380  -4.75666  -1.29977
H     2.73824  -5.53175  -0.71248
H     3.01295  -4.09307  -1.70618
H     1.70965  -5.21609  -2.12252
O     0.79662   1.36377  -0.47754
