58

Pd    0.00000   0.00000   0.00000
P    -1.12661  -1.76168  -1.70959
S     1.96921   0.98632   0.57357
O     1.97228   2.21244  -1.84910
N     3.06961   3.21760  -0.18818
N    -1.82660  -0.75186  -0.68355
C     1.27171   1.21441  -2.53194
C     0.44324   0.28287  -1.91873
C    -0.19237  -0.63883  -2.76514
C    -0.03402  -0.64595  -4.13999
H    -0.54330  -1.37797  -4.75202
C     0.78267   0.31722  -4.71290
H     0.91824   0.34722  -5.78348
C     1.43493   1.24060  -3.91559
H     2.08066   1.98776  -4.35247
C     2.31245   2.17721  -0.56482
C     3.51923   4.23833  -1.10676
H     3.31794   3.93592  -2.13016
H     4.59245   4.38876  -0.98210
H     3.00254   5.18032  -0.90835
C     3.46507   3.36806   1.19162
H     2.63509   3.10167   1.84698
H     3.75025   4.40251   1.36621
H     4.30475   2.71230   1.43122
C     0.16971  -2.87430  -1.05787
C     0.41119  -2.92836   0.31520
H    -0.26340  -2.43892   1.01892
C     1.49468  -3.65509   0.78384
H     1.68708  -3.69636   1.84525
C     2.32639  -4.31892  -0.10491
H     3.17459  -4.87599   0.26500
C     2.07632  -4.27218  -1.46778
H     2.72552  -4.79295  -2.15667
C     1.00275  -3.54469  -1.94873
H     0.80575  -3.48324  -3.01156
C    -2.26780  -2.72845  -2.73454
C    -2.25754  -4.11372  -2.81915
H    -1.52701  -4.68273  -2.26022
C    -3.18953  -4.75310  -3.61738
H    -3.18732  -5.83092  -3.68784
C    -4.12660  -4.01446  -4.32224
H    -4.85200  -4.51973  -4.94247
C    -4.14038  -2.63092  -4.23116
H    -4.87516  -2.05935  -4.77857
C    -3.21143  -1.98657  -3.43638
H    -3.20155  -0.90796  -3.34163
C    -2.83421  -1.06198   0.22339
C    -3.32752  -2.34945   0.40817
H    -2.87562  -3.16572  -0.14878
C    -4.35416  -2.58002   1.30405
H    -4.72642  -3.58526   1.44178
C    -4.89034  -1.53254   2.03216
H    -5.68469  -1.71696   2.74001
C    -4.39229  -0.24885   1.86365
H    -4.79704   0.56715   2.44399
C    -3.37699  -0.00888   0.96272
H    -2.95901   0.98381   0.82802
O    -0.32448  -0.16363   1.60948
