58

Pd    0.00000   0.00000   0.00000
P    -1.15985  -1.57581  -2.12459
S    -0.24043   0.89780   2.11243
O    -0.95352  -1.56048   2.98894
O     2.43998  -1.50534  -0.81195
O     0.75510  -2.96592  -1.22062
N     0.07091  -0.21248   4.44471
C    -1.52133  -2.00588   1.79338
C    -1.14813  -1.55746   0.52853
C    -1.76883  -2.21265  -0.55104
C    -2.73757  -3.19339  -0.40345
H    -3.21623  -3.63152  -1.26795
C    -3.08091  -3.59664   0.87672
H    -3.82618  -4.36322   1.02574
C    -2.46054  -3.02026   1.96959
H    -2.70222  -3.33699   2.97326
C    -0.37642  -0.37896   3.19203
C    -0.10737  -1.19477   5.48873
H     0.86538  -1.54718   5.83888
H    -0.67506  -2.04089   5.11351
H    -0.64451  -0.74589   6.32669
C     0.74225   1.01175   4.81152
H     1.27213   0.85652   5.74780
H     0.02816   1.82991   4.92685
H     1.45140   1.29443   4.03203
C    -2.36776  -0.29913  -2.57710
C    -2.24743   0.99407  -2.07158
H    -1.38313   1.28556  -1.45846
C    -3.22565   1.93183  -2.35554
H    -3.12552   2.93557  -1.97135
C    -4.32476   1.58688  -3.12557
H    -5.08455   2.32263  -3.34340
C    -4.45385   0.29585  -3.61274
H    -5.31332   0.02340  -4.20745
C    -3.48206  -0.64790  -3.33622
H    -3.57932  -1.65667  -3.71491
C    -1.18084  -2.80222  -3.45956
C    -1.07637  -2.32180  -4.76251
H    -1.07668  -1.25294  -4.93441
C    -0.98028  -3.20741  -5.81888
H    -0.90412  -2.83578  -6.82986
C    -0.97575  -4.57294  -5.57798
H    -0.89917  -5.26488  -6.40342
C    -1.05765  -5.05132  -4.28029
H    -1.04162  -6.11562  -4.09565
C    -1.15325  -4.16990  -3.21793
H    -1.19818  -4.53353  -2.20237
C     0.39521  -0.79187  -1.86307
H     0.75492  -0.05238  -2.57694
C     1.33069  -1.71464  -1.24944
C     1.42994  -3.96343  -0.46087
H     0.64940  -4.63086  -0.08327
H     1.93686  -3.47490   0.37923
C     2.43764  -4.71597  -1.31772
H     2.90184  -5.50574  -0.73362
H     3.20721  -4.02911  -1.66040
H     1.94325  -5.15217  -2.18325
O     0.81594   1.36218  -0.44857
