29

C    -0.02391   1.41563  -1.47769
C    -0.40960   2.46018  -3.39631
C     0.32793   3.31170  -2.60009
C    -0.85191   2.80459  -4.72027
C     0.30937   4.96774  -4.30300
C     1.47180   5.49060  -2.23669
H     0.94312   5.76324  -1.32483
H     1.59986   6.38178  -2.85068
H     2.45236   5.08133  -1.99940
C    -0.79964   4.58578  -6.38492
H    -1.36113   3.80063  -6.88516
H     0.09699   4.83425  -6.95104
H    -1.40810   5.48348  -6.28332
C    -1.32949   0.16660  -3.15988
H    -0.83436  -0.24132  -4.04166
H    -2.33932   0.46137  -3.44528
H    -1.36843  -0.58765  -2.37546
C     1.27590   3.10755  -0.26260
H     1.24055   2.30549   0.47522
H     0.81193   3.99469   0.16654
H     2.31851   3.31440  -0.50074
Au    0.00000   0.00000   0.00000
N     0.69586   4.55238  -3.02507
N    -0.42858   4.08969  -5.06795
N     0.55560   2.65249  -1.42452
N    -0.60569   1.30532  -2.67164
O    -1.50425   2.11110  -5.46894
O     0.61512   6.06073  -4.71668
O     0.03026  -1.12781   1.20401
