44

Pd    0.00000   0.00000   0.00000
P     1.39393   1.51407  -0.79729
N    -1.49007  -0.88130   1.14729
N    -2.18486   0.01339   1.87221
N     0.75616   2.98983  -0.25251
H     1.30316   3.84280  -0.26120
C    -2.01457  -2.07241   1.37913
H    -1.61737  -2.94959   0.90270
C    -3.07754  -1.94943   2.27870
H    -3.69989  -2.73259   2.65882
C    -3.15500  -0.60443   2.56932
H    -3.82623  -0.07173   3.21157
C    -1.80327   1.36520   1.77354
C    -2.38256   2.41916   2.47471
H    -3.19813   2.25621   3.16189
C    -1.88091   3.69315   2.27291
H    -2.31564   4.52173   2.81111
C    -0.83053   3.93502   1.39489
H    -0.46034   4.94120   1.25998
C    -0.26800   2.87498   0.69842
C    -0.75251   1.58170   0.89169
C     1.92070   1.84644  -2.49477
C     1.60983   3.01003  -3.18677
H     1.02932   3.78534  -2.70721
C     2.03611   3.16069  -4.49529
H     1.80135   4.06631  -5.03576
C     2.75477   2.15113  -5.11429
H     3.08120   2.27349  -6.13656
C     3.04362   0.97855  -4.43139
H     3.58800   0.18640  -4.92320
C     2.62545   0.82243  -3.12421
H     2.81896  -0.09266  -2.57854
C     2.97484   1.30988   0.09592
C     4.11267   2.04914  -0.20643
H     4.09461   2.75016  -1.03063
C     5.26465   1.87200   0.53908
H     6.15177   2.44153   0.30326
C     5.28324   0.96104   1.58342
H     6.18690   0.82128   2.15797
C     4.14987   0.22279   1.88812
H     4.17204  -0.49222   2.69708
C     2.99510   0.39696   1.14739
H     2.09244  -0.19452   1.35911
O     0.58317  -1.36986  -0.71127
