39

Pd    0.00000   0.00000   0.00000
I     2.11874   1.45109  -0.46868
N     0.37112   0.09486   1.92728
N     0.50578   0.82575   3.99833
H     0.38894   1.42913   4.79498
C    -0.67859   2.28260   2.29948
H     0.00918   3.12358   2.18454
H    -1.45531   2.55496   3.01244
H    -1.14021   2.07018   1.32019
C     0.05744   1.07110   2.73735
C     1.15076  -0.39114   3.98087
C     1.79862  -1.14774   4.94361
H     1.87822  -0.81316   5.96625
C     2.33881  -2.35129   4.53266
H     2.85184  -2.96829   5.25449
C     2.24321  -2.79940   3.21252
H     2.68336  -3.74919   2.95031
C     1.59991  -2.05530   2.24729
H     1.50735  -2.38457   1.21494
C     1.05500  -0.84309   2.65002
N    -0.37112  -0.09485  -1.92728
N    -0.50552  -0.82564  -3.99841
H    -0.38862  -1.42901  -4.79506
C     0.67853  -2.28265  -2.29952
H    -0.00935  -3.12356  -2.18467
H     1.45526  -2.55509  -3.01245
H     1.14013  -2.07034  -1.32018
C    -0.05735  -1.07105  -2.73738
C    -1.15049   0.39125  -3.98099
C    -1.79830   1.14787  -4.94374
H    -1.87780   0.81335  -5.96641
C    -2.33863   2.35134  -4.53276
H    -2.85168   2.96833  -5.25460
C    -2.24318   2.79939  -3.21259
H    -2.68347   3.74910  -2.95035
C    -1.59988   2.05530  -2.24735
H    -1.50741   2.38448  -1.21496
C    -1.05487   0.84315  -2.65011
O    -1.33962  -0.91672   0.29589
