55

Ag    0.00000   0.00000   0.00000
C    -2.25851  -0.18708   1.97437
C    -2.03579   1.15422   1.63639
C    -3.54233  -0.46491  -0.06239
C    -2.55435   1.68273   0.44697
C    -3.09036  -0.96526   1.16300
C    -2.38685   3.14176   0.10557
H    -2.16324   3.74730   0.97823
H    -3.30423   3.53088  -0.33114
H    -1.57806   3.28562  -0.61314
C    -3.23280   0.84358  -0.44291
C    -1.62793  -0.79779   3.20066
H    -0.63461  -0.39336   3.38308
H    -1.50973  -1.86903   3.07259
H    -2.24196  -0.62144   4.08554
C    -3.45682  -2.36482   1.56663
H    -4.44602  -2.62519   1.20323
H    -3.46012  -2.48339   2.64598
H    -2.74855  -3.07259   1.13464
C     0.79928   2.17361  -3.95285
H    -0.23265   1.82475  -3.94780
H     1.30721   1.66434  -4.77078
H     0.81588   3.24582  -4.13556
C    -4.33869  -1.36951  -0.95670
H    -3.76118  -2.26648  -1.17337
H    -4.59873  -0.89761  -1.89555
H    -5.26638  -1.66687  -0.46798
C    -3.63011   1.34371  -1.80611
H    -3.36317   0.60642  -2.56011
H    -3.11750   2.26493  -2.06046
H    -4.70474   1.52049  -1.86019
N    -0.03334   2.53886   1.88093
N     1.68025   2.65093   0.56454
C     0.52452   3.77825   2.08758
C     0.19398   4.83389   2.92482
H    -0.64332   4.78016   3.60367
C     1.62986   3.85650   1.22078
C     2.41638   4.99745   1.16106
H     3.26028   5.06857   0.49268
C     2.07495   6.04477   1.99414
H     2.66444   6.94858   1.97584
C     0.98624   5.96366   2.86126
H     0.75849   6.80467   3.49814
C     0.66909   1.84721   0.95907
C     2.59666   2.31633  -0.50315
H     2.76802   1.23482  -0.47417
H     3.54090   2.83839  -0.32798
C     1.44986   1.82949  -2.65891
H     1.46645   0.76851  -2.41660
C    -1.22885   2.05650   2.54080
H    -1.83052   2.92418   2.83028
H    -0.94779   1.54381   3.46327
C     2.00072   2.70084  -1.82920
H     1.99571   3.76047  -2.05393
O    -0.30340  -1.33945  -0.91450
