38

Pd    0.00000   0.00000   0.00000
O    -2.32758   2.69403   4.53540
O    -1.27783   4.63179   4.17423
N    -1.12000  -0.74178   1.57493
N    -0.27731   1.51843   1.01834
N     1.00871   1.43757  -1.12495
C    -1.50838  -1.99835   1.75861
H    -1.20083  -2.70860   0.99771
C    -2.26131  -2.39184   2.85233
H    -2.55409  -3.42321   2.96250
C    -2.62470  -1.43224   3.78841
H    -3.21277  -1.70432   4.65182
C    -2.22840  -0.12117   3.60579
H    -2.49597   0.65684   4.30238
C    -1.46762   0.22065   2.48809
C    -0.97188   1.54323   2.15293
C    -0.95010   2.89791   2.61969
C    -0.20889   3.64320   1.67176
C     0.20001   2.73075   0.67786
C     0.95357   2.68221  -0.55348
C     1.60403   3.75765  -1.16340
H     1.56471   4.72938  -0.70040
C     2.29189   3.56222  -2.34449
H     2.79643   4.38840  -2.82258
C     2.32925   2.29307  -2.90865
H     2.85672   2.10546  -3.82921
C     1.67389   1.25983  -2.25998
H     1.67659   0.24982  -2.65676
C    -1.58687   3.36082   3.84252
C    -1.87992   5.11586   5.36272
H    -2.96848   5.09730   5.27369
H    -1.52392   6.13521   5.49026
H    -1.58916   4.49866   6.21556
C     0.08818   5.10191   1.65790
H    -0.47886   5.61829   2.42306
H    -0.16190   5.52469   0.68504
H     1.14958   5.27186   1.84257
O     0.24695  -1.35120  -0.91421
