37

Pd    0.00000   0.00000   0.00000
Cl   -0.54366   1.38738  -1.66929
O     1.66441  -2.00410   1.30380
N     0.58041  -1.14773   1.66882
N     1.52788  -0.74881  -1.14896
C     2.72572  -1.14435   0.92971
H     3.65594  -1.64347   1.22054
C     2.49150   0.16863   1.72454
H     3.33857   0.41705   2.36053
H     2.30041   1.00636   1.03564
C     1.22563  -0.14180   2.54642
H     0.55220   0.72488   2.59860
C     2.71505  -0.97427  -0.57743
C     3.86954  -1.14917  -1.32535
H     4.81305  -1.31111  -0.82755
C     3.78931  -1.11269  -2.70845
H     4.67549  -1.23332  -3.31208
C     2.54411  -0.94507  -3.29250
H     2.42570  -0.94644  -4.36367
C     1.43855  -0.76332  -2.47915
H     0.45234  -0.60502  -2.89711
C     1.48531  -0.64048   3.94684
C     2.47775  -1.56754   4.24302
H     3.11353  -1.95848   3.46439
C     2.65367  -2.01382   5.54172
H     3.42681  -2.73626   5.75755
C     1.84467  -1.53931   6.55882
H     1.98611  -1.88827   7.57059
C     0.85254  -0.61682   6.27213
H     0.21581  -0.24363   7.05975
C     0.67268  -0.17327   4.97483
H    -0.10589   0.54124   4.75149
C    -0.45159  -1.96231   2.28180
H    -0.82508  -2.66158   1.53173
H    -1.25847  -1.29894   2.59494
H    -0.06027  -2.51886   3.13858
O    -1.19299   0.66577   0.92522
