55

Ru    0.00000   0.00000   0.00000
N    -0.79627  -1.83289  -0.40202
N    -1.03813  -1.73037   1.89275
N    -0.65042  -0.50783   1.71062
N     0.80836   0.45376  -1.84030
N     2.50702  -0.81351  -0.92925
N     1.70111  -0.84493   0.06667
C    -0.94761  -2.47715  -1.55377
C    -1.37955  -3.78838  -1.63158
C    -1.53532  -4.48174  -2.94613
C    -1.66899  -4.45006  -0.42834
C    -1.54061  -3.79083   0.76684
C    -1.10430  -2.45569   0.76118
C    -0.72901   0.28791   2.85014
C    -1.09151   1.63174   2.73893
C    -1.13886   2.41978   3.87313
C    -0.83203   1.88567   5.11393
C    -0.50496   0.54210   5.22945
C    -0.46466  -0.26063   4.10897
C     0.32831   1.22204  -2.80714
C     1.06095   1.56506  -3.93572
C     0.48260   2.46499  -4.97806
C     2.36027   1.06115  -4.04751
C     2.87271   0.26068  -3.05294
C     2.07140  -0.02098  -1.94082
C     2.03127  -1.72407   1.10624
C     2.20542  -1.21125   2.38957
C     2.48016  -2.07390   3.43292
C     2.56467  -3.43926   3.20681
C     2.40087  -3.94457   1.92753
C     2.14932  -3.09131   0.86935
Cl   -2.06077   0.90878  -0.59457
H    -0.70928  -1.91373  -2.44861
H    -2.00012  -5.47766  -0.45422
H    -1.76561  -4.25230   1.71334
H    -1.36830   2.03955   1.77755
H    -1.41658   3.45880   3.78447
H    -0.85709   2.51170   5.99349
H    -0.28035   0.12083   6.19830
H    -0.20833  -1.30718   4.17241
H    -0.68455   1.58121  -2.66555
H     2.95938   1.30818  -4.91164
H     3.87100  -0.14219  -3.08784
H     2.13657  -0.14270   2.54196
H     2.62480  -1.67819   4.42676
H     2.76274  -4.11037   4.02887
H     2.47218  -5.00729   1.75073
H     2.02143  -3.46752  -0.13576
H    -2.58528  -4.71142  -3.12488
H    -0.98537  -5.42167  -2.94834
H    -1.17434  -3.85961  -3.76061
H    -0.60194   2.48617  -4.91311
H     0.77818   2.14233  -5.97437
H     0.85080   3.48074  -4.83180
O     0.70635   1.42876   0.42687
