63

Tc    0.00000   0.00000   0.00000
Cl    1.47456  -0.23636  -1.79930
P     1.42762   1.69615   0.85339
P    -1.74012  -0.67672  -1.46704
O    -0.44592   2.05864  -1.49441
N     0.35757  -1.37632   0.92897
C     1.36456   3.06529  -0.38404
H     1.77806   3.99137   0.01971
H     1.98040   2.73960  -1.22969
C    -0.07069   3.26095  -0.86449
H    -0.74549   3.47771  -0.02057
H    -0.13304   4.09272  -1.58494
C    -1.72924   2.02140  -2.07318
H    -1.82566   2.83058  -2.81526
H    -2.50198   2.16189  -1.30008
C    -1.86147   0.65510  -2.74026
H    -1.01242   0.50688  -3.41680
H    -2.78819   0.58228  -3.31249
C     3.21165   1.42398   1.06069
C     3.70537   0.13150   0.92676
H     3.01736  -0.67217   0.69283
C     5.05928  -0.10531   1.09016
H     5.44529  -1.10733   0.98051
C     5.91572   0.94010   1.39346
H     6.97249   0.75524   1.51878
C     5.42021   2.22608   1.54484
H     6.08865   3.03825   1.79176
C     4.06962   2.47096   1.38298
H     3.68037   3.47156   1.51574
C     0.98665   2.42407   2.45839
C     0.81756   3.77497   2.72753
H     0.92580   4.51720   1.94864
C     0.48811   4.18334   4.00946
H     0.35124   5.23530   4.21583
C     0.32713   3.25189   5.02009
H     0.06497   3.57897   6.01553
C     0.48814   1.90064   4.75212
H     0.34836   1.17222   5.53657
C     0.81384   1.48681   3.47594
H     0.91324   0.43432   3.23205
C    -3.39993  -0.87093  -0.75408
C    -4.56355  -0.26766  -1.21063
H    -4.54847   0.40571  -2.05655
C    -5.76369  -0.51532  -0.56503
H    -6.66772  -0.04098  -0.91860
C    -5.80697  -1.35994   0.53026
H    -6.74644  -1.54381   1.03021
C    -4.64423  -1.95851   0.99305
H    -4.67463  -2.60635   1.85630
C    -3.44420  -1.71323   0.35606
H    -2.51540  -2.14174   0.71805
C    -1.59921  -2.18443  -2.47048
C    -0.58447  -3.08591  -2.17011
H     0.09812  -2.85774  -1.36000
C    -0.45963  -4.24912  -2.90970
H     0.33141  -4.94736  -2.68186
C    -1.34586  -4.51546  -3.94012
H    -1.24561  -5.42131  -4.51976
C    -2.36853  -3.62478  -4.22776
H    -3.06482  -3.83929  -5.02546
C    -2.50095  -2.46163  -3.49292
H    -3.30802  -1.77418  -3.70762
O    -1.19221   0.80280   0.81034
