27

I     1.03154  -0.00018  -2.51482
Ru    0.00000   0.00000   0.00000
C    -1.28717  -1.27782  -0.43615
O    -2.08971  -2.04167  -0.70644
C     2.64904  -0.73345   0.92988
N     1.50160  -1.30388   0.51393
C     1.41999  -2.63146   0.47595
H     0.48264  -3.05500   0.13291
C     3.74041  -1.50661   1.32230
H     4.65058  -1.03653   1.65461
C     2.46220  -3.45935   0.84896
H     2.34169  -4.52891   0.79886
C     3.64742  -2.88469   1.28320
H     4.48196  -3.49793   1.58451
C     2.64903   0.73347   0.92990
N     1.50160   1.30390   0.51393
C     1.41999   2.63149   0.47602
H     0.48266   3.05506   0.13295
C     3.74041   1.50662   1.32234
H     4.65058   1.03653   1.65463
C     2.46219   3.45938   0.84910
H     2.34166   4.52894   0.79910
C     3.64742   2.88470   1.28330
H     4.48195   3.49792   1.58465
C    -1.28710   1.27781  -0.43635
O    -2.08955   2.04159  -0.70709
O    -0.43743   0.00011   1.59096
