66

C     1.71642  -0.41799  -0.93938
C     2.09197  -0.41595  -2.25627
H     1.53148  -0.14660  -3.12951
C     3.84441  -1.12823  -1.13165
C     2.86745  -1.01729   1.16803
H     2.19325  -1.85038   1.44171
H     3.88203  -1.23923   1.51048
C     2.96018   0.88409   2.79084
C     1.07688   1.87352   2.22727
H     0.30504   2.61544   2.28299
C     1.18324   0.77850   1.41204
C     4.07549  -1.04840  -3.58117
C     4.99532  -0.09416  -4.01158
C     5.63567  -0.30292  -5.22346
H     6.35114   0.42767  -5.57148
C     5.36827  -1.42211  -5.99994
C     4.43437  -2.34539  -5.54823
H     4.21305  -3.21349  -6.15107
C     3.77132  -2.17819  -4.34256
C     5.27488   1.12531  -3.18515
H     5.88439   0.87336  -2.31640
H     4.34743   1.57222  -2.82941
H     5.81222   1.86508  -3.77190
C     6.04991  -1.61583  -7.31807
H     7.01525  -1.11608  -7.33592
H     5.43616  -1.19410  -8.11424
H     6.19194  -2.67277  -7.52982
C     2.76091  -3.17126  -3.86126
H     1.77531  -2.71384  -3.77660
H     3.02983  -3.55511  -2.87698
H     2.68911  -4.00746  -4.55018
C     5.18219  -1.67993  -0.80948
H     5.75751  -0.99373  -0.18556
H     5.72949  -1.84963  -1.73406
H     5.09434  -2.62971  -0.28046
C     4.21383   0.54346   3.50500
H     5.07520   0.57496   2.83544
H     4.15563  -0.45541   3.93915
H     4.37244   1.25971   4.30809
C     2.34366   2.88710   4.08506
C     1.59831   2.76000   5.25828
C     1.76059   3.72729   6.23823
H     1.19190   3.64539   7.15248
C     2.62821   4.79763   6.06812
C     3.34617   4.89810   4.88380
H     4.01578   5.73296   4.73743
C     3.21437   3.95534   3.87622
C     0.65867   1.61038   5.44349
H     1.18090   0.65952   5.33552
H    -0.13742   1.63352   4.69960
H     0.20365   1.64428   6.42880
C     2.76480   5.84507   7.12826
H     3.77480   6.24758   7.15012
H     2.52069   5.44204   8.10776
H     2.07997   6.66780   6.92173
C     3.97973   4.07921   2.59275
H     4.39231   5.07932   2.49350
H     3.33517   3.88374   1.73682
H     4.80593   3.36765   2.56442
N     3.38751  -0.85648  -2.35310
N     2.84705  -0.86056  -0.26550
N     2.38285   0.19015   1.78990
N     2.16445   1.91732   3.06246
I    -2.09393   0.55436   1.44623
Pd    0.00000   0.00000   0.00000
O    -0.84520  -0.72764  -1.21601
