61

C    -3.09981   0.32626  -0.61111
H    -3.15706  -0.01076   0.41544
C    -4.24679   0.57178  -1.34883
H    -5.21990   0.42714  -0.90877
C    -4.10152   1.00500  -2.65650
H    -4.96691   1.20874  -3.26944
C    -2.82848   1.17649  -3.17273
H    -2.70091   1.51667  -4.18727
C    -1.72915   0.90495  -2.36080
C    -0.33354   1.05232  -2.80582
C     0.01693   1.43119  -4.09192
H    -0.73386   1.64126  -4.83588
C     1.36798   1.53523  -4.44506
C     2.31410   1.24743  -3.45234
H     3.36348   1.30271  -3.68233
C     1.88700   0.88504  -2.18401
C     2.81295   0.56471  -1.08429
C     4.19384   0.73190  -1.16515
H     4.65545   1.12864  -2.05445
C     4.97644   0.39053  -0.07546
H     6.04864   0.51202  -0.11828
C     4.36548  -0.10442   1.06487
H     4.93838  -0.38403   1.93378
C     2.98524  -0.22655   1.06506
H     2.45723  -0.59711   1.93370
C     1.75664   1.92280  -5.76888
C     3.01564   2.02994  -6.31151
H     3.91712   1.81886  -5.76527
C     3.02987   2.41416  -7.65351
H     3.92515   2.52399  -8.23810
C     1.76942   2.61738  -8.16905
C     0.17851   2.73870  -9.97957
C    -0.37534   1.46987  -9.83747
H     0.17079   0.70014  -9.31239
C    -1.61511   1.19399 -10.38281
H    -2.03680   0.20647 -10.27138
C    -2.30685   2.17122 -11.07875
H    -3.27317   1.95073 -11.50551
C    -1.75156   3.43155 -11.22938
H    -2.28543   4.19783 -11.77091
C    -0.51599   3.71963 -10.68235
H    -0.08230   4.70254 -10.79324
C     2.34539   3.81540 -10.17389
C     2.47947   3.58568 -11.54080
H     1.89419   2.80839 -12.00930
C     3.35744   4.34886 -12.28641
H     3.45795   4.16211 -13.34487
C     4.11055   5.34152 -11.68113
H     4.79772   5.93341 -12.26569
C     3.97511   5.57342 -10.32234
H     4.55104   6.35239  -9.84574
C     3.09612   4.81910  -9.56844
H     2.98031   5.01171  -8.51222
I    -0.19935  -2.52986  -0.17869
N    -1.88606   0.48692  -1.10422
N     0.59219   0.79280  -1.88288
N     2.23965   0.09799   0.02542
N     1.43990   3.03642  -9.42564
S     0.54486   2.33614  -6.96751
Zn    0.00000   0.00000   0.00000
O    -0.23021   1.06358   1.24029
