60

Br    1.43831  -1.90922  -0.17939
Ni    0.00000   0.00000   0.00000
N    -0.14465  -0.04806  -1.82022
O     0.06115  -0.11885   2.03463
C     0.88306   0.45381  -2.53626
N     1.81227   1.34587  -0.53061
C     3.02139   1.67024  -2.59585
C    -1.16534  -0.63835  -2.43419
C     0.95445   0.30145  -3.93664
C    -0.09506  -0.38331  -4.57221
H    -0.05866  -0.54268  -5.63941
C     1.92814   1.16971  -1.85852
C    -2.35358  -1.03194  -1.65887
C     2.07056   0.82366  -4.64556
H     2.10070   0.67967  -5.71524
C     3.06908   1.47569  -4.00189
H     3.91969   1.86224  -4.54362
C    -2.25890  -1.67240  -0.42155
H    -1.30075  -2.03240  -0.05186
C     0.82503  -0.39653   4.09968
H     1.48711  -0.59520   4.91675
C     3.24461   2.06669   3.90076
C     2.54184   2.20725   1.56697
C     3.49902   1.78982   2.53105
C     2.75717   1.99201   0.12652
C     1.14224  -0.41732   2.78142
H     2.06460  -0.64126   2.28319
C    -4.74676  -0.94702  -1.40230
H    -5.71383  -0.65351  -1.78170
C     3.89640   2.50568  -0.52467
H     4.63836   3.03578   0.05235
C    -3.61275  -0.68325  -2.14621
H    -3.69570  -0.16197  -3.08829
C     4.18445   1.65366   4.86781
H     3.98659   1.87721   5.90655
C    -1.15292  -0.82742  -3.82706
H    -1.97959  -1.34838  -4.28320
C    -4.64415  -1.57068  -0.16980
H    -5.53128  -1.76713   0.41318
C     2.05148   2.72449   4.26677
H     1.87288   2.92699   5.31303
C     1.38013   2.82661   1.96713
H     0.65682   3.13754   1.22851
C     1.13420   3.08589   3.32088
H     0.21318   3.57395   3.60149
C     4.65945   1.06224   2.19252
H     4.83539   0.79678   1.16015
C    -0.96403   0.09184   2.88549
H    -1.92197   0.34843   2.47572
C    -0.54941  -0.06316   4.16787
H    -1.14759   0.04163   5.04932
C    -3.40064  -1.94184   0.31261
H    -3.31522  -2.43941   1.26767
C     4.02249   2.35112  -1.87905
H     4.87617   2.74871  -2.40915
C     5.31350   0.97535   4.50476
H     6.02694   0.66003   5.25175
C     5.54536   0.66755   3.15632
H     6.42785   0.10801   2.88345
O    -1.11016   1.22047   0.02198
