50

Pd    0.00000   0.00000   0.00000
Cl   -0.30261  -2.20754   0.23962
S     0.53244   2.31122  -0.24543
P    -0.13918   0.26956   2.20884
O     0.33270  -0.80904   3.29840
O    -1.69986   0.45380   2.54297
O     0.29074   1.69119   2.86305
O     4.79526   4.53131   1.41723
C    -0.32302  -1.05705   4.49850
C     0.41005  -0.90389   5.66500
C    -0.15560  -1.21733   6.88754
C    -1.45843  -1.68379   6.94425
C    -2.18723  -1.83662   5.78058
C    -1.63973  -1.52256   4.53810
C    -2.42502  -1.70653   3.30702
C    -3.17442  -2.85939   3.08402
C    -3.85638  -3.03623   1.89504
C    -3.79502  -2.07209   0.90206
C    -3.06192  -0.91531   1.10620
C    -2.41403  -0.72851   2.31525
C     1.60972   2.74357   1.10902
C     1.39367   2.39054   2.44103
C     2.31854   2.78896   3.40138
C     3.44289   3.50677   3.05639
C     3.67671   3.83890   1.72164
C     2.75017   3.45979   0.76028
C    -1.08903   2.80673   0.31830
C    -2.17113   2.23314  -0.34369
C    -3.45530   2.59713   0.02088
C    -3.65681   3.51760   1.03773
C    -2.57216   4.09983   1.66987
C    -1.28038   3.76131   1.30290
H     1.42699  -0.54969   5.59379
H     0.42100  -1.09566   7.79157
H    -1.90580  -1.92791   7.89565
H    -3.20625  -2.19082   5.82175
H    -3.18251  -3.63282   3.83691
H    -4.41753  -3.94317   1.73050
H    -4.29414  -2.22803  -0.04091
H    -2.98018  -0.15526   0.33616
H     2.13155   2.51531   4.42764
H     4.15858   3.81173   3.80168
H     2.90141   3.71243  -0.27980
H    -1.99345   1.52832  -1.15687
H    -4.30030   2.15692  -0.48692
H    -4.66006   3.78605   1.33102
H    -2.72530   4.82827   2.45154
H    -0.43646   4.23019   1.78651
H     4.85325   4.68190   0.46531
O    -0.09868  -0.13805  -1.64125
