55

Ti    0.00000   0.00000   0.00000
Cl    0.81036  -1.59012   1.27232
C     0.16124   4.21469   0.31511
C     0.08554   2.89430   0.19093
C     1.01994   1.96211  -0.49196
C     0.73110   1.33976  -1.73144
H     0.09168   1.74492  -2.50732
C     1.64505   0.25315  -1.89940
C     1.87350  -0.63680  -2.96010
H     1.30452  -0.55025  -3.87533
C     2.82523  -1.61490  -2.80360
H     3.01121  -2.31391  -3.60547
C     3.57387  -1.72628  -1.61998
H     4.31497  -2.50810  -1.54412
C     3.38728  -0.86098  -0.56958
H     3.97207  -0.94560   0.33589
C     2.41140   0.14060  -0.69022
C     1.96243   1.16369   0.20322
H     2.42192   1.41020   1.15371
C    -0.91822   1.93998   0.72919
C    -0.68174   1.15457   1.88360
H    -0.03143   1.42621   2.70729
C    -1.65094   0.10352   1.90604
C    -1.93994  -0.89933   2.84419
H    -1.37870  -0.96016   3.76623
C    -2.94114  -1.79591   2.56006
H    -3.17445  -2.57890   3.26620
C    -3.68096  -1.71542   1.36832
H    -4.46388  -2.43785   1.19132
C    -3.43329  -0.73767   0.43588
H    -4.01037  -0.67452  -0.47627
C    -2.40483   0.18403   0.68666
C    -1.88763   1.28201  -0.07060
H    -2.32249   1.66662  -0.98542
C     1.32671   4.97035  -0.25729
H     1.00262   5.95192  -0.60665
H     1.74013   4.41918  -1.10499
C     2.42850   5.15328   0.79370
H     2.02868   5.70068   1.64991
H     2.74799   4.17030   1.14581
C     3.62456   5.90434   0.22428
H     4.39437   6.02536   0.98276
H     3.32730   6.89156  -0.12320
H     4.05157   5.35960  -0.61488
C    -0.89010   4.99299   1.05267
H    -0.40428   5.70941   1.71886
H    -1.48817   4.30763   1.65747
C    -1.82184   5.75749   0.10271
H    -2.52328   6.34133   0.70197
H    -1.24009   6.45741  -0.50031
C    -2.59646   4.82088  -0.81407
H    -3.26945   5.38581  -1.45482
H    -3.18535   4.11922  -0.22752
H    -1.91203   4.25739  -1.44450
O    -0.65665  -1.06449  -1.07619
