70

Pd    0.00000   0.00000   0.00000
C    -1.80225   0.39641  -0.89949
H    -2.62778  -0.00452  -0.30493
H    -1.79840  -0.12238  -1.86237
H    -1.96467   1.46774  -1.06672
P     0.72553   2.09080   0.23005
C     2.48041   2.15927  -0.27505
C     3.09205   3.32020  -0.73598
H     2.49931   4.21144  -0.88876
C     4.44249   3.32985  -1.03007
H     4.90499   4.23091  -1.40458
C     5.20352   2.18984  -0.82678
H     6.26479   2.20391  -1.02560
C     4.60813   1.03083  -0.36255
H     5.20337   0.15186  -0.17433
C     3.24197   0.99869  -0.12416
S     2.47235  -0.50948   0.44378
C     2.63797  -1.64693  -1.00812
H     1.96373  -2.45448  -0.69956
C     2.10207  -0.98527  -2.26482
H     1.06328  -0.64977  -2.09711
H     2.10322  -1.70694  -3.08071
H     2.71460  -0.12862  -2.55007
C     4.04730  -2.18336  -1.17688
H     4.46500  -2.48537  -0.21899
H     4.69721  -1.44152  -1.63648
H     4.02053  -3.05615  -1.82715
C    -0.05920   3.49708  -0.59852
C    -0.81554   4.43581   0.09507
H    -0.85043   4.39569   1.17454
C    -1.52543   5.41117  -0.58063
H    -2.10566   6.13575  -0.02992
C    -1.49245   5.44927  -1.96504
H    -2.03500   6.21423  -2.50020
C    -0.77656   4.50226  -2.67448
H    -0.77163   4.54420  -3.75220
C    -0.07976   3.50648  -2.00317
S     0.83424   2.23894  -2.80898
C     0.11140   2.11049  -4.50741
H     0.18292   3.10386  -4.95617
C    -1.32646   1.63395  -4.44008
H    -1.93762   2.29995  -3.83461
H    -1.36523   0.63954  -4.00178
H    -1.74971   1.58987  -5.44218
C     0.99550   1.14072  -5.27500
H     2.02941   1.47844  -5.27247
H     0.65415   1.06644  -6.30535
H     0.95158   0.15386  -4.82106
C     0.99963   2.69806   1.94019
C     1.50544   3.98106   2.14651
H     1.71582   4.61154   1.29487
C     1.73082   4.45778   3.42273
H     2.11696   5.45666   3.56226
C     1.46541   3.65357   4.52103
H     1.64014   4.02344   5.52018
C     0.99522   2.36847   4.33186
H     0.80971   1.71958   5.17409
C     0.76438   1.88701   3.05016
S     0.21751   0.19876   2.87651
C    -1.57090   0.37492   3.33076
H    -1.60955   0.52383   4.41341
C    -2.17906   1.55138   2.59187
H    -1.80428   2.49881   2.97668
H    -3.26196   1.53957   2.70139
H    -1.93410   1.47610   1.52658
C    -2.20774  -0.94224   2.92801
H    -1.77262  -1.76764   3.48685
H    -2.02756  -1.11980   1.86375
H    -3.28056  -0.92053   3.10751
O    -0.40172  -1.59548  -0.12474
