54

Pt    0.00000   0.00000   0.00000
I    -1.39168  -1.19982  -1.85186
P     1.40259   0.77535  -1.61370
P     1.40730   0.94909   1.51613
C     2.94900   1.26133  -0.72261
H     3.40705   0.30955  -0.40918
C     2.53158   2.04414   0.53298
H     1.89028   2.88068   0.21387
C     3.84615   2.60417   1.09239
H     4.21872   2.00600   1.92415
H     3.71202   3.62322   1.45440
C     4.84604   2.55881  -0.08297
H     5.61629   1.81073   0.10992
H     5.34422   3.51641  -0.22810
C     4.03396   2.15100  -1.31945
H     3.59533   3.03445  -1.78684
H     4.65384   1.64272  -2.05654
C     0.78514   2.31273  -2.45319
H     1.46323   3.13096  -2.17761
C    -0.62879   2.66898  -2.00048
H    -1.34843   1.95292  -2.39309
H    -0.91123   3.66005  -2.35181
H    -0.69867   2.65977  -0.90687
C     0.89816   2.02786  -3.95648
H    -0.00916   1.52340  -4.29577
H     1.00266   2.95423  -4.52284
C     2.09155   1.10041  -4.16850
H     3.02376   1.63302  -3.96602
H     2.12804   0.73150  -5.19432
C     1.91539  -0.05744  -3.18350
H     1.04555  -0.64908  -3.49806
C     3.10867  -0.99083  -3.04687
H     4.01477  -0.44848  -2.78476
H     3.28225  -1.50712  -3.98907
H     2.91555  -1.74252  -2.28223
C     0.95208   1.86256   3.06075
H     0.00139   1.42306   3.38974
C     0.75395   3.35940   2.87496
H     1.68575   3.85402   2.60837
H     0.38787   3.80008   3.80024
H     0.01677   3.55215   2.09619
C     2.03781   1.46851   4.06530
H     2.95289   2.03459   3.87494
H     1.71448   1.68606   5.08404
C     2.28567  -0.02520   3.87327
H     1.40353  -0.57693   4.20571
H     3.14085  -0.36989   4.45631
C     2.50239  -0.27817   2.37603
H     3.53873  -0.03905   2.10237
C     2.19641  -1.71028   1.94488
H     1.23684  -2.03407   2.34381
H     2.96106  -2.39580   2.30666
H     2.15701  -1.78620   0.85280
O    -1.01084  -0.40754   1.23880
