40

Zn    0.00000   0.00000   0.00000
I    -1.07079   2.24233  -0.48082
Si   -0.74592  -1.81311   2.94124
N    -1.66957  -1.22600   0.48665
N    -2.04562  -1.57505   1.75067
N     0.70416   0.23768   1.99400
N     0.03374  -0.22199   3.08976
C    -2.69645  -1.01921  -1.74792
H    -1.69274  -1.13082  -2.15395
H    -3.02583   0.00672  -1.91739
H    -3.37184  -1.68392  -2.28140
C    -2.72553  -1.32678  -0.29844
C    -3.83134  -1.74833   0.46011
H    -4.82740  -1.91088   0.10365
C    -3.37226  -1.89574   1.74363
C    -4.14614  -2.29916   2.94195
H    -4.04754  -1.56192   3.73539
H    -3.81335  -3.26385   3.31954
H    -5.19572  -2.37885   2.67130
C     2.27722   2.05067   1.42520
H     2.54006   1.45275   0.55455
H     3.18818   2.36366   1.93042
H     1.75332   2.94550   1.08686
C     1.41853   1.28538   2.35975
C     1.21378   1.53465   3.72790
H     1.64729   2.32378   4.30669
C     0.33716   0.57202   4.15796
C    -0.23436   0.40894   5.51613
H     0.05550   1.26240   6.12328
H     0.13614  -0.49513   5.99493
H    -1.32020   0.36291   5.47726
C    -1.39825  -2.43693   4.60042
H    -2.13508  -1.80140   5.07389
H    -0.56930  -2.55866   5.28781
H    -1.83854  -3.41797   4.46695
C     0.50888  -3.04528   2.23390
H     0.88621  -2.74555   1.26013
H     0.06681  -4.03134   2.11362
H     1.36992  -3.15136   2.88929
O     1.08692  -0.91874  -0.83488
