37

Re    0.00000   0.00000   0.00000
C     1.01415   1.65021  -0.10896
O     1.60033   2.64190  -0.13632
C    -0.23451  -0.24353  -1.93066
O    -0.50180  -0.47812  -3.01346
C     1.57890  -1.13218  -0.01599
O     2.46151  -1.86649   0.00743
N     0.15875  -0.42824   3.24560
C    -0.34521   0.02724   2.07943
N    -1.58098   0.45313   2.41998
N    -1.86098   0.28623   3.72696
C    -0.78931  -0.25133   4.20793
H    -0.66415  -0.52505   5.23553
C     1.47978  -0.97626   3.43691
H     1.60307  -1.82420   2.75750
H     1.54781  -1.33111   4.46841
C     2.55962   0.06890   3.15164
H     2.45201   0.40991   2.11841
H     3.53262  -0.41394   3.24687
C     2.48613   1.26796   4.09419
H     2.64184   0.93721   5.12448
H     1.49397   1.72287   4.03515
C     3.53065   2.31433   3.72862
H     4.53049   1.89163   3.78914
H     3.47415   3.16393   4.40444
H     3.36853   2.66796   2.71336
N    -1.97747   1.04091   0.24281
C    -2.47015   0.95150   1.48296
C    -3.76779   1.30848   1.82551
H    -4.09068   1.19817   2.84771
C    -4.59464   1.77553   0.82203
H    -5.61439   2.05299   1.03935
C    -4.09058   1.87539  -0.46856
H    -4.70460   2.23302  -1.27890
C    -2.78188   1.49950  -0.71084
H    -2.35825   1.56517  -1.70397
O    -0.99838  -1.30256   0.17051
