37

Re    0.00000   0.00000   0.00000
C    -1.53557   0.65436  -0.98799
O    -2.44428   1.02144  -1.58751
C     1.23954   1.33293  -0.72977
O     2.04688   2.02197  -1.15037
C    -0.34505   1.15206   1.53010
O    -0.48442   1.81851   2.45499
N    -1.60552  -2.30030   1.68644
C    -0.93638  -1.80124   0.64357
N    -0.64953  -2.88586  -0.14298
C    -1.13946  -4.04234   0.41967
H    -1.00592  -4.99426  -0.04823
C    -1.73376  -3.66645   1.57043
H    -2.23763  -4.25082   2.31270
C    -2.04605  -1.55236   2.83810
H    -2.97886  -1.99399   3.20036
H    -2.23215  -0.52374   2.52089
C    -0.98094  -1.58966   3.93922
H    -0.66570  -2.62613   4.08676
H    -0.10891  -1.02214   3.60984
C    -1.49055  -1.03186   5.26597
H    -0.70897  -1.17661   6.01404
H    -2.36539  -1.60349   5.58761
C    -1.84398   0.44863   5.20012
H    -1.00117   1.02374   4.82723
H    -2.09810   0.81617   6.19135
H    -2.69533   0.62332   4.54716
N     0.49377  -1.50093  -1.57708
C     0.09721  -2.75325  -1.28953
N     0.36487  -3.83629  -1.99270
C     1.11381  -3.68540  -3.07070
H     1.32696  -4.58822  -3.62497
C     1.59354  -2.44069  -3.45705
H     2.20991  -2.31437  -4.33010
C     1.24455  -1.35907  -2.66674
H     1.57242  -0.35514  -2.90408
O     1.30593  -0.67123   0.75266
