51

Cd    0.00000   0.00000   0.00000
I     1.90370   1.34239  -1.33207
O     5.63157  -3.43066   5.64873
O     4.31914  -5.56584   5.32931
H     5.02177  -4.94585   5.69162
O    -3.04004  -5.21559  -6.39810
O    -5.13824  -3.98681  -5.70739
H    -4.55420  -4.62378  -6.21899
N     1.30304  -1.46668   1.43529
N    -0.78941  -1.58690  -1.67761
C     5.03571  -1.39056   4.58021
H     5.70120  -0.95728   5.32253
H     4.07340  -0.88463   4.60139
H     5.47579  -1.24555   3.59539
C     4.87884  -2.86027   4.85842
C     3.79701  -3.56645   4.19286
C     3.57275  -4.88793   4.48387
C     2.47545  -5.69287   3.86168
H     2.18557  -5.29783   2.89292
H     1.60559  -5.69045   4.51771
H     2.80906  -6.72293   3.76199
C     2.93433  -2.84908   3.23661
C     3.42577  -2.39029   2.01515
H     4.45120  -2.57076   1.73323
C     2.58249  -1.71191   1.15645
H     2.94637  -1.34706   0.20319
C     0.82452  -1.90849   2.59732
H    -0.21841  -1.69652   2.80190
C     1.59181  -2.59797   3.51663
H     1.15712  -2.92482   4.44793
C    -0.95765  -4.91438  -5.29007
H    -0.34945  -4.11207  -5.70342
H    -0.69956  -5.83886  -5.80050
H    -0.73829  -4.99896  -4.22853
C    -2.41530  -4.61656  -5.52134
C    -3.05330  -3.63480  -4.66429
C    -4.39622  -3.38378  -4.80442
C    -5.14031  -2.39431  -3.96590
H    -5.94581  -1.96751  -4.55847
H    -4.49050  -1.60701  -3.59670
H    -5.59210  -2.90196  -3.11429
C    -2.26434  -2.93322  -3.63565
C    -1.25333  -2.03587  -3.97591
H    -1.03346  -1.82237  -5.01005
C    -0.55126  -1.39336  -2.97392
H     0.23581  -0.68968  -3.21939
C    -1.74860  -2.44977  -1.34587
H    -1.92249  -2.59050  -0.28540
C    -2.50170  -3.13803  -2.27687
H    -3.26600  -3.82652  -1.95314
O    -1.40299   0.19178   0.84696
