19

Pt    0.00000   0.00000   0.00000
Cl   -0.96043  -1.57009   1.27526
N    -1.76949   0.28574  -0.82311
H    -2.51371  -0.30620  -0.45716
N     0.79114   1.39363  -1.14992
H     1.78718   1.55361  -1.00690
N    -1.14551   1.96690  -2.30746
H    -1.50284   2.58135  -3.02597
C    -2.07576   1.12097  -1.74414
C     0.19830   2.10333  -2.03567
C    -3.45806   1.27436  -2.30697
H    -4.14186   0.58139  -1.82561
H    -3.45838   1.07431  -3.37784
H    -3.82326   2.28839  -2.14771
C     0.88459   3.14727  -2.86654
H     1.93619   3.21079  -2.60191
H     0.42719   4.12302  -2.70609
H     0.80757   2.90244  -3.92545
O     1.49939  -0.20067   0.65883
