56

Pt    0.00000   0.00000   0.00000
N     1.07718  -0.63578   1.61820
N    -0.26705   0.36703   3.29095
N    -1.18593   0.94155   1.20326
H    -1.97414   1.43166   0.78116
N     1.05231  -0.90277  -1.25450
N     1.64355  -0.76285   3.84852
H     2.39419  -1.35323   3.51175
C     0.78375  -0.32747   2.87556
C    -1.17671   0.93422   2.51623
C     1.55546  -1.40125  -2.16966
C     2.19854  -2.01569  -3.25124
C     3.22125  -2.94273  -3.01995
H     3.50514  -3.17696  -2.00467
C     3.85006  -3.54079  -4.09329
H     4.63951  -4.25664  -3.91958
C     3.47197  -3.22659  -5.39072
H     3.96878  -3.69878  -6.22477
C     2.45747  -2.30859  -5.61985
H     2.16581  -2.06779  -6.63098
C     1.81638  -1.69974  -4.55964
H     1.02460  -0.98454  -4.72220
C     2.18986  -1.44301   1.31165
C     2.17050  -2.81612   1.56241
H     1.29530  -3.25666   2.01838
C     3.25113  -3.60192   1.20695
H     3.22320  -4.66497   1.39610
C     4.36305  -3.03240   0.60782
H     5.20553  -3.64963   0.33279
C     4.38960  -1.66852   0.36067
H     5.25337  -1.22129  -0.10880
C     3.31411  -0.87527   0.71178
H     3.32155   0.18836   0.51766
C     1.63641  -0.58649   5.22854
C     2.53203  -1.36112   5.96829
H     3.17823  -2.06243   5.45665
C     2.59821  -1.23982   7.34213
H     3.29570  -1.84863   7.89870
C     1.77474  -0.34343   8.00295
H     1.82474  -0.25000   9.07724
C     0.89304   0.43390   7.27138
H     0.25277   1.14254   7.77602
C     0.82087   0.32388   5.89488
H     0.13996   0.93200   5.32591
C    -2.25537   1.62267   3.26367
C    -2.86252   2.77195   2.76472
H    -2.53417   3.19975   1.82789
C    -3.86786   3.39526   3.48142
H    -4.32905   4.28997   3.08980
C    -4.28182   2.87685   4.69707
H    -5.07033   3.36380   5.25170
C    -3.67890   1.73574   5.20102
H    -3.99783   1.33008   6.14990
C    -2.66881   1.11372   4.49216
H    -2.19240   0.22393   4.87268
O    -0.90962   0.55453  -1.25999
