52

I    -1.09538   0.87198  -2.07024
Zn    0.00000   0.00000   0.00000
C     3.24936   0.79674  -0.70360
H     4.33947   0.94357  -0.68340
C     2.69602   1.30755  -2.02582
C     2.25687   2.61991  -2.15086
H     2.27239   3.28623  -1.30063
N     1.35543   2.74152  -5.71484
C     3.94914  -1.59158  -0.46424
H     4.99746  -1.37146  -0.48450
N     3.01973  -0.61936  -0.54008
C     3.38636   2.32285   1.27181
H     4.44311   2.47525   1.18347
C     2.04061   2.60543  -6.90971
C     1.25136   2.27420   1.77719
H     0.28246   2.40684   2.21814
C     2.47248   2.83319   2.16197
H     2.65396   3.50457   2.97437
C     0.19841   3.46703  -5.95586
C     1.78254   2.25940  -4.48230
N     2.71393   1.51905   0.42522
C     0.14042   3.80445  -7.32565
C     1.92786  -2.44202  -0.39018
H     1.06955  -3.08233  -0.32657
C     1.32223   3.26006  -7.93571
N     1.78839  -1.13374  -0.50144
C     2.68044   0.47613  -3.13966
H     3.01471  -0.54847  -3.06128
C    -1.95277   4.87211  -6.94969
H    -2.80429   5.42752  -7.31339
C    -1.90072   4.50599  -5.60687
H    -2.71783   4.77133  -4.95378
C     3.75282   2.05842  -8.45953
H     4.70743   1.60431  -8.68181
C    -0.83224   3.79799  -5.08994
H    -0.82428   3.48686  -4.05786
C     1.80064   3.09174  -3.36441
H     1.46662   4.11304  -3.45468
C     2.22449   0.94350  -4.35456
H     2.18350   0.28272  -5.20584
C     1.82528   3.28753  -9.22911
H     1.27871   3.78304 -10.01699
N     1.41370   1.49195   0.72600
C     3.27148   2.01870  -7.16403
H     3.84773   1.55545  -6.37685
C     3.28099  -2.78822  -0.36729
H     3.70058  -3.76854  -0.28685
C    -0.94286   4.51802  -7.82157
H    -0.99213   4.78056  -8.86759
C     3.03724   2.67561  -9.48188
H     3.44482   2.68261 -10.48174
O    -0.47275  -0.72254   1.40603
