48

Pd    0.00000   0.00000   0.00000
F     0.94809  -0.53573   2.45922
F    -1.05213   0.20901   2.61675
N     2.02081  -0.76158  -0.35334
N    -0.05060  -0.43902  -2.08657
C    -1.07696  -0.32582  -2.90317
H    -2.04743  -0.19534  -2.43778
C    -0.93918  -0.34863  -4.29487
H    -1.81435  -0.25362  -4.91761
C     0.31307  -0.48565  -4.84228
H     0.46045  -0.49965  -5.91250
C     1.42309  -0.61266  -3.99015
C     2.75426  -0.76118  -4.46993
H     2.91485  -0.75945  -5.53793
C     3.78917  -0.90643  -3.60905
H     4.79946  -1.02384  -3.97245
C     3.58212  -0.92222  -2.20052
C     4.63353  -1.11272  -1.28968
H     5.64198  -1.23815  -1.65566
C     4.34533  -1.15126   0.05062
H     5.11737  -1.31467   0.78526
C     3.02470  -0.97339   0.47221
H     2.79157  -1.02399   1.52332
C     2.27909  -0.75134  -1.68161
C     1.18584  -0.59015  -2.59734
C     0.09969   0.43031   1.91864
C     0.66390   1.84347   2.20748
C     1.49206   1.90399   3.51404
H     1.36782   2.89279   3.95653
H     1.15095   1.16358   4.23520
C     2.96242   1.69081   3.11489
H     3.27423   0.65982   3.29657
H     3.63651   2.34254   3.67218
C     2.98918   1.98487   1.64432
C     1.70042   2.11102   1.13765
C     1.47936   2.38178  -0.20878
H     0.47316   2.56869  -0.59174
C     2.58629   2.50864  -1.04246
H     2.44544   2.72972  -2.09144
C     3.87103   2.36540  -0.54039
H     4.71726   2.46167  -1.20559
C     4.08284   2.11222   0.80669
H     5.08691   2.01534   1.19376
C    -0.48030   2.85772   2.20491
H    -1.09788   2.73497   1.31666
H    -0.07876   3.86847   2.22546
H    -1.11139   2.70459   3.07679
O    -1.54008   0.58973  -0.05370
