35

Pt    0.00000   0.00000   0.00000
N     1.28596   1.59251  -0.43311
N    -1.01903  -1.55490   0.96004
C     0.86826   0.12699   1.72392
C     1.96141   0.97039   1.86446
C     2.57971   1.06426   3.10132
H     3.43123   1.71418   3.24924
C     2.09751   0.30348   4.15911
H     2.58338   0.37318   5.12139
C     1.00698  -0.54462   4.01188
H     0.65624  -1.12287   4.85566
C     0.37887  -0.62975   2.77937
C     0.42294   2.76895  -0.28698
H     0.97391   3.68819  -0.52316
H     0.05518   2.82846   0.73893
H    -0.42612   2.68113  -0.96753
C     1.84155   1.56197  -1.78530
H     1.02415   1.51560  -2.50515
H     2.45585   0.66988  -1.91132
H     2.44928   2.45287  -1.98424
C    -0.86042  -1.42567   2.44084
H    -1.72953  -0.88392   2.82871
H    -0.85614  -2.42228   2.90069
C    -0.31358  -2.75322   0.49462
H    -0.77493  -3.66078   0.90431
H     0.72989  -2.71059   0.81190
H    -0.35530  -2.79677  -0.59539
C    -2.43376  -1.65465   0.60440
H    -2.52343  -1.74099  -0.47863
H    -2.95719  -0.75072   0.91739
H    -2.90063  -2.52710   1.07718
C     2.38289   1.64821   0.58116
H     3.24540   1.10729   0.17770
H     2.68742   2.69073   0.73943
O    -0.74034  -0.10896  -1.47055
