45

Ti    0.00000   0.00000   0.00000
Cl   -2.08908   0.50094  -0.36650
O     0.80199   1.09480  -0.95976
C    -0.02123  -2.06686  -1.01275
C     1.33249  -1.71194  -0.81409
C     1.55743  -1.62040   0.57899
C     0.35154  -1.95947   1.23743
C    -0.62320  -2.22272   0.26014
C     1.65777   1.66045  -1.79991
C     1.73347   1.20991  -3.13347
C     2.72501   1.72055  -3.96156
C     3.61617   2.67200  -3.49654
C     3.51235   3.14656  -2.20078
C     2.53417   2.66238  -1.34107
C     2.36795   3.19224   0.02246
C     1.09825   3.54320   0.48229
C     0.94045   4.07917   1.74797
C     2.03920   4.25775   2.57143
C     3.30166   3.90574   2.12379
C     3.46770   3.38161   0.85546
C     0.74513   0.23079  -3.61692
C     1.13380  -0.87585  -4.36865
C     0.19002  -1.77808  -4.82507
C    -1.15254  -1.58764  -4.53890
C    -1.55108  -0.48461  -3.79994
C    -0.61030   0.42121  -3.34048
H    -0.47722  -2.31834  -1.96078
H     2.08914  -1.63242  -1.58561
H     2.51470  -1.45202   1.05938
H     0.22924  -2.07285   2.30727
H    -1.62479  -2.59472   0.44188
H     2.77887   1.37934  -4.98471
H     4.38047   3.05963  -4.15269
H     4.18148   3.91758  -1.84913
H     0.23288   3.41743  -0.16234
H    -0.04580   4.35019   2.09411
H     1.91147   4.66750   3.56217
H     4.16018   4.03951   2.76587
H     4.45169   3.09912   0.50885
H     2.18086  -1.03084  -4.58721
H     0.50263  -2.63343  -5.40609
H    -1.88637  -2.29484  -4.89638
H    -2.59593  -0.32318  -3.58021
H    -0.93367   1.30960  -2.80908
O     0.06114   0.72560   1.48063
