48

Pt    0.00000   0.00000   0.00000
O    -5.17022   4.22778   1.78651
O    -4.28390   5.30048   0.01382
O    -4.10770   7.48485   1.76187
O    -6.87081   5.22985  -1.06009
N    -0.75202  -0.65371   1.88435
N     0.26917   1.13171  -1.78622
N    -5.26706   6.25217   0.21728
C    -1.35997   1.35667   0.28126
C    -2.27105   1.19864   1.32077
C    -3.23610   2.16306   1.52404
H    -3.96291   2.08789   2.31922
C    -3.28831   3.27302   0.67088
C    -2.37412   3.42472  -0.37832
H    -2.43693   4.28953  -1.01999
C    -1.40293   2.46137  -0.56372
C    -2.11564  -0.08932   2.08572
H    -2.84223  -0.80970   1.69395
H    -2.31176   0.03491   3.15840
C    -0.78936  -2.09721   2.12260
H     0.21847  -2.50776   2.08906
H    -1.38527  -2.58540   1.35016
H    -1.22348  -2.31801   3.10408
C     0.17579  -0.03042   2.83486
H    -0.08945  -0.29460   3.86548
H     0.13947   1.05562   2.73133
H     1.19373  -0.37492   2.63981
C    -0.29793   2.49426  -1.58695
H     0.50078   3.14124  -1.20757
H    -0.63112   2.90221  -2.54999
C    -0.55460   0.40107  -2.75593
H    -0.50785   0.87827  -3.74209
H    -1.59426   0.38557  -2.42344
H    -0.19349  -0.62533  -2.85013
C     1.63311   1.24946  -2.30357
H     2.02155   0.26541  -2.56077
H     2.28174   1.68700  -1.54337
H     1.65569   1.87871  -3.20028
C    -4.33657   4.25931   0.92083
C    -5.11153   7.26627   1.14894
C    -6.43095   8.00518   1.18699
H    -6.26607   9.03922   0.88269
H    -6.79229   8.02024   2.21546
C    -7.36015   7.24553   0.24228
H    -8.23401   6.83448   0.74834
H    -7.71909   7.85634  -0.58660
C    -6.53998   6.10031  -0.30891
O     1.15524  -1.15333  -0.24032
