28

Pd    0.00000   0.00000   0.00000
Cl   -1.98366   0.66786   0.78482
N     1.93375  -0.18415  -0.59410
N     0.85865  -0.24550   1.75354
O    -1.02391  -2.07371   1.49690
H    -1.91970  -2.40754   1.35193
C     2.42555  -0.16932  -1.82939
H     1.69500  -0.23058  -2.62838
C     3.78226  -0.07872  -2.08492
H     4.13783  -0.06962  -3.10217
C     4.67130   0.00011  -1.01562
H     5.73383   0.07383  -1.18942
C     4.17022  -0.01614   0.26885
H     4.82058   0.04633   1.12729
C     2.78680  -0.10796   0.46041
C     2.15421  -0.20583   1.74215
H     2.74488  -0.34752   2.64446
C     0.10607  -0.53051   2.88433
C     0.30419   0.06242   4.12728
H     1.10308   0.77877   4.24996
C    -0.56045  -0.21633   5.16879
H    -0.41699   0.26063   6.12569
C    -1.62041  -1.08854   4.97884
H    -2.30339  -1.28986   5.78943
C    -1.81556  -1.70449   3.75415
H    -2.64541  -2.38055   3.60785
C    -0.95462  -1.43994   2.70168
O    -0.60253   0.07458  -1.53424
