58

Pd    0.00000   0.00000   0.00000
N    -0.58418  -1.01798  -1.80715
H    -1.52140  -0.61058  -1.90116
P     0.56854   1.15451   1.79921
C     1.89398  -0.44035  -0.47676
C     2.27141  -0.19199  -1.79659
C     3.54029  -0.54220  -2.23433
H     3.82925  -0.34216  -3.25795
C     4.43736  -1.14309  -1.36737
H     5.42769  -1.40385  -1.71194
C     4.05734  -1.42064  -0.06691
H     4.74689  -1.90656   0.60905
C     2.79077  -1.06869   0.37546
H     2.51238  -1.28905   1.40303
C     1.23852   0.35799  -2.75140
H     1.69910   0.66162  -3.69302
H     0.73077   1.23360  -2.30978
C     0.19234  -0.73972  -3.02142
H    -0.46944  -0.42905  -3.83907
H     0.71795  -1.64870  -3.33176
C    -0.74638  -2.43797  -1.50252
H    -1.22899  -2.98100  -2.32584
H    -1.36939  -2.54376  -0.60768
H     0.23212  -2.88749  -1.31162
C     2.28026   1.29992   2.39986
C     3.19667   1.87684   1.52472
H     2.85310   2.22068   0.55598
C     4.52376   1.99144   1.88558
H     5.23371   2.43495   1.20338
C     4.94496   1.52668   3.12268
H     5.98419   1.61052   3.40456
C     4.03721   0.95029   3.99436
H     4.36720   0.58615   4.95650
C     2.70486   0.83197   3.63583
H     1.99676   0.37353   4.31309
C    -0.33147   0.44187   3.20796
C    -0.53226  -0.93576   3.11741
H    -0.16880  -1.46982   2.23080
C    -1.21013  -1.60605   4.11628
H    -1.37144  -2.67159   4.04358
C    -1.70219  -0.90114   5.20452
H    -2.24350  -1.42051   5.98137
C    -1.51990   0.46890   5.28780
H    -1.92125   1.01681   6.12781
C    -0.83484   1.14608   4.29288
H    -0.71390   2.21787   4.35022
C     0.13788   2.90970   1.62011
C    -0.46074   3.30793   0.42890
H    -0.66880   2.56105  -0.34103
C    -0.79556   4.63428   0.22895
H    -1.26907   4.94058  -0.69205
C    -0.52428   5.56891   1.21461
H    -0.79240   6.60444   1.06386
C     0.10340   5.18248   2.38830
H     0.33061   5.91779   3.14649
C     0.44437   3.85784   2.59145
H     0.96307   3.55944   3.49264
O    -1.60395   0.21302   0.32321
