28

Pt    0.00000   0.00000   0.00000
N     1.51693   1.23600  -0.20034
N    -1.44721  -1.16488   0.17678
C     2.63289   1.17505   0.52507
H     2.68066   0.38579   1.26532
C     3.68264   2.05952   0.35971
H     4.56415   1.96800   0.97310
C     3.57324   3.05310  -0.60225
H     4.37321   3.76094  -0.75934
C     2.41852   3.12024  -1.35751
H     2.30649   3.88124  -2.11250
C     1.39199   2.20173  -1.14549
C     0.13056   2.16814  -1.87300
C    -0.22201   3.06349  -2.88127
H     0.45186   3.85350  -3.17886
C    -1.44630   2.94364  -3.50822
H    -1.72362   3.63658  -4.28914
C    -2.31807   1.93308  -3.13319
H    -3.27567   1.84154  -3.62636
C    -1.96988   1.04140  -2.13064
H    -2.66999   0.26237  -1.85871
C    -0.74545   1.13477  -1.47753
C    -2.17307  -2.00121   0.49633
C    -3.08819  -3.03205   0.87886
H    -2.66347  -4.00393   0.62722
H    -4.03835  -2.90604   0.35980
H    -3.25374  -2.98567   1.95537
O     0.67038  -0.88690   1.21922
