63

Re    0.00000   0.00000   0.00000
Cl    1.70609   1.16969  -1.14919
P    -1.44276   1.70875  -0.82380
P     1.72822  -0.63562   1.51605
O     0.43885   2.11100   1.51939
N    -0.33130  -1.39802  -0.95455
C    -1.36755   3.10070   0.38757
H    -1.77246   4.01938  -0.04087
H    -1.98738   2.79803   1.23896
C     0.06872   3.30207   0.86498
H     0.74353   3.49977   0.01585
H     0.13298   4.14882   1.56754
C     1.72790   2.07620   2.08580
H     1.83548   2.89310   2.81773
H     2.49502   2.20341   1.30424
C     1.86159   0.71646   2.76732
H     1.02124   0.57845   3.45674
H     2.79716   0.64819   3.32520
C    -1.03470   2.37996  -2.46005
C    -0.97589   3.72504  -2.79525
H    -1.14880   4.49349  -2.05439
C    -0.67487   4.09324  -4.09592
H    -0.62192   5.14091  -4.35539
C    -0.43599   3.12755  -5.05811
H    -0.19755   3.42421  -6.06892
C    -0.48904   1.78283  -4.72311
H    -0.28891   1.02976  -5.47017
C    -0.78450   1.40796  -3.42770
H    -0.79760   0.36425  -3.12894
C    -3.21717   1.36556  -0.98293
C    -3.63453   0.03962  -0.95266
H    -2.89505  -0.74092  -0.81010
C    -4.97858  -0.25833  -1.09195
H    -5.30571  -1.28645  -1.06131
C    -5.90084   0.76017  -1.26676
H    -6.95055   0.52785  -1.37084
C    -5.48165   2.08082  -1.31257
H    -6.20223   2.87293  -1.45646
C    -4.14083   2.38745  -1.17530
H    -3.81366   3.41724  -1.22300
C     1.51707  -2.13585   2.51450
C     0.55369  -3.05624   2.11683
H    -0.05557  -2.83633   1.24674
C     0.38055  -4.22234   2.84124
H    -0.37219  -4.93451   2.53916
C     1.16797  -4.47221   3.95298
H     1.02968  -5.38032   4.52121
C     2.13824  -3.56082   4.33977
H     2.75601  -3.76141   5.20323
C     2.31884  -2.39387   3.62119
H     3.08399  -1.68940   3.91765
C     3.37634  -0.88341   0.79598
C     4.57020  -0.41211   1.32361
H     4.58538   0.18838   2.22274
C     5.76320  -0.70107   0.68264
H     6.69208  -0.32817   1.09009
C     5.76820  -1.45721  -0.47669
H     6.70303  -1.67291  -0.97287
C     4.57567  -1.92620  -1.00697
H     4.57793  -2.50499  -1.91816
C     3.38185  -1.63991  -0.37502
H     2.43144  -1.96613  -0.78637
O    -1.04673  -0.16757   1.26443
