63

Pd    0.00000   0.00000   0.00000
Cl    1.02558  -1.98493   0.52546
P    -0.99203   1.93109  -0.46593
N    -0.08561   3.24208  -1.10002
C     0.23185   3.21043  -2.51845
H    -0.68411   3.04514  -3.08782
H     0.62460   4.19737  -2.78473
C     1.25147   2.11040  -2.85430
H     1.79206   2.36850  -3.77354
H     0.71809   1.16733  -3.02584
N     2.22184   1.91669  -1.77639
C     2.39827   3.14548  -1.01974
H     3.18786   3.00171  -0.28046
H     2.72807   3.91623  -1.72420
C     1.10256   3.57277  -0.31201
H     1.03940   3.06264   0.65727
H     1.11452   4.65433  -0.12803
P     1.98325   0.47226  -0.88133
C    -2.37648   1.87425  -1.63100
C    -2.72849   0.62194  -2.12500
H    -2.19306  -0.25904  -1.77197
C    -3.76596   0.50038  -3.03186
H    -4.04468  -0.47327  -3.40642
C    -4.44762   1.62940  -3.45569
H    -5.26381   1.53599  -4.15675
C    -4.07762   2.88240  -2.99111
H    -4.59974   3.76251  -3.33786
C    -3.03945   3.01110  -2.08683
H    -2.72489   3.98919  -1.75143
C    -1.53478   2.64898   1.11752
C    -0.89464   2.16180   2.25723
H    -0.14524   1.36438   2.16146
C    -1.23208   2.64440   3.50706
H    -0.73906   2.25877   4.38717
C    -2.21761   3.61140   3.62952
H    -2.49086   3.98183   4.60646
C    -2.86302   4.09010   2.50212
H    -3.64154   4.83265   2.60023
C    -2.52430   3.61414   1.24699
H    -3.04420   3.97961   0.37559
C     2.29616  -0.76612  -2.17986
C     3.54997  -1.07827  -2.68730
H     4.42982  -0.58864  -2.30163
C     3.67432  -2.04108  -3.67451
H     4.65286  -2.28936  -4.05873
C     2.55430  -2.69260  -4.16177
H     2.65881  -3.44768  -4.92687
C     1.29991  -2.38777  -3.65670
H     0.42691  -2.90605  -4.02481
C     1.17115  -1.43161  -2.66774
H     0.18321  -1.21921  -2.23647
C     3.37922   0.55364   0.26864
C     4.66958   0.90361  -0.12067
H     4.87198   1.15343  -1.15229
C     5.67873   0.96005   0.82303
H     6.68283   1.21955   0.52017
C     5.40516   0.68819   2.15475
H     6.19977   0.72705   2.88509
C     4.11424   0.37935   2.55118
H     3.89869   0.18519   3.59123
C     3.10132   0.31670   1.61128
H     2.08423   0.06035   1.90735
O    -1.46785  -0.40153   0.63771
