44

Zn    0.00000   0.00000   0.00000
Cl   -0.03209  -1.79332  -1.25225
C     2.56303  -3.10197   2.78362
H     3.18054  -3.87986   2.36147
C     0.95077  -1.39250   2.55024
C    -4.05025  -0.05128  -2.90977
H    -4.36171  -0.91359  -3.47886
C     0.75315   4.40091   2.80115
H     1.42437   4.90335   3.48078
C    -3.30862   2.18831  -1.52171
C     1.03249  -1.14612   3.93516
C    -0.42279   0.21123   2.98548
C    -0.73757   2.55763   2.33661
C    -1.42118   1.30388   2.83731
H    -1.88373   1.50557   3.80741
H    -2.18833   0.98219   2.13395
C     1.87822  -1.87055   4.75912
H     1.93809  -1.67730   5.81919
C    -1.78626   2.39985   0.06279
C     0.11213   3.24201   3.19543
H     0.27927   2.85570   4.19111
C    -2.68705   0.94971  -1.26093
C     1.72162  -2.38534   1.95834
H     1.65294  -2.57747   0.89964
C    -0.94256   3.06328   1.05081
C     2.64150  -2.85048   4.15561
H     3.31641  -3.43841   4.75904
C     0.53520   4.90949   1.53225
H     1.03604   5.80987   1.21235
C    -0.31423   4.24954   0.66899
H    -0.45627   4.62261  -0.33442
C    -3.05827  -0.19223  -1.96215
H    -2.56803  -1.13416  -1.77709
C    -4.30641   2.32144  -2.47410
H    -4.77587   3.27321  -2.67030
C    -4.66431   1.17858  -3.16091
H    -5.43512   1.23647  -3.91442
N     0.14297  -0.12215   4.17169
H    -0.04508   0.30626   5.06328
N     0.03144  -0.52519   2.00468
N    -1.75124   1.12688  -0.26712
N    -2.70839   3.08056  -0.66635
H    -2.90001   4.06642  -0.59483
O     1.19033   1.14246  -0.01993
