60

C     0.81273  -1.49992  -2.27222
C     1.51364  -1.62638  -3.46591
H     1.99649  -2.55734  -3.70605
C     1.60342  -0.52161  -4.31245
C     0.95864   0.66226  -3.93817
H     1.04645   1.52468  -4.57714
C     0.26787   0.70419  -2.73868
C     0.70497  -2.56921  -1.26595
C     1.26191  -3.83807  -1.39633
H     1.78625  -4.13042  -2.29184
C     1.14605  -4.73050  -0.34180
H     1.58372  -5.71528  -0.41670
C     0.47460  -4.34284   0.80582
H     0.37685  -5.00753   1.64884
C    -0.07020  -3.06630   0.84693
H    -0.60930  -2.69611   1.70879
C     3.50129  -0.62085  -8.27766
C     4.06438  -1.10947  -6.93898
H     4.74563  -1.94343  -7.11857
H     4.63829  -0.29629  -6.49325
C     3.01707  -1.59236  -5.93882
H     3.54722  -2.03221  -5.08182
C     2.15318  -2.66342  -6.60541
H     1.35811  -2.98665  -5.93098
H     2.79873  -3.52270  -6.79965
C     1.49899  -2.21831  -7.91823
C     4.61942  -0.66071  -9.32779
H     4.96767  -1.68073  -9.47474
H     5.45435  -0.04546  -9.00571
H     4.24489  -0.28918 -10.27711
C     2.97470   0.81983  -8.17189
H     2.45580   1.07872  -9.09203
H     3.80631   1.50561  -8.03379
H     2.29502   0.92480  -7.33313
C     1.06623  -3.46618  -8.69925
H     0.36385  -4.04998  -8.11118
H     1.92910  -4.08429  -8.93710
H     0.59356  -3.17005  -9.63110
C     0.26052  -1.34230  -7.66472
H     0.50482  -0.48152  -7.05082
H    -0.51051  -1.92307  -7.16412
H    -0.12716  -0.99390  -8.61922
C    -0.41010   1.89979  -2.21814
C    -0.69058   3.03731  -2.97092
H    -0.44208   3.08162  -4.01901
C    -1.30484   4.11245  -2.34926
H    -1.52483   5.00869  -2.91067
C    -1.63241   4.02509  -1.00490
H    -2.10414   4.84628  -0.49010
C    -1.33940   2.84752  -0.33128
H    -1.57723   2.70074   0.71410
Cl   -0.90502   0.21626   1.90017
Cu    0.00000   0.00000   0.00000
N     0.20741  -0.36239  -1.93992
N     0.04457  -2.22104  -0.15695
N     2.42395  -1.47550  -8.76942
N    -0.74861   1.83121  -0.92737
O     2.26692  -0.47389  -5.48288
O     2.08529  -1.32629  -9.98521
O     1.64203   0.13963   0.08202
