64

Pt    0.00000   0.00000   0.00000
Si   -0.00004   0.00008  -4.14886
P     1.62024   0.54062  -1.48683
Cl    1.56529   0.54232   1.59629
C     2.90458   1.72535  -0.99588
C     2.68183   3.09186  -1.12795
C     3.63154   3.99574  -0.68798
C     4.80288   3.54326  -0.10435
C     5.01996   2.18326   0.04663
C     4.07426   1.27570  -0.39114
C     2.56136  -0.94335  -1.93759
C     3.64270  -0.89917  -2.81202
C     4.31395  -2.06375  -3.13618
C     3.91205  -3.27405  -2.59106
C     2.84178  -3.32117  -1.71248
C     2.16911  -2.15722  -1.38536
C     1.06528   1.20068  -3.10744
C     1.12984  -1.07708  -5.24544
H     1.76135  -1.74075  -4.66297
H     1.77909  -0.46010  -5.85757
H     0.53881  -1.68986  -5.91843
H     1.75922   3.45055  -1.56307
H     3.45271   5.05623  -0.79142
H     5.54046   4.25073   0.24474
H     5.92462   1.82930   0.51852
H     4.22977   0.21567  -0.25073
H     3.96010   0.04750  -3.22678
H     5.15503  -2.03028  -3.81314
H     4.44106  -4.18037  -2.84605
H     2.53877  -4.26251  -1.27854
H     1.33958  -2.16858  -0.67908
H     1.94726   1.51336  -3.66895
H     0.47664   2.09344  -2.88851
C    -1.06521  -1.20091  -3.10774
P    -1.62038  -0.54105  -1.48712
C    -2.90455  -1.72590  -0.99601
C    -2.68182  -3.09238  -1.12826
C    -3.63132  -3.99632  -0.68794
C    -4.80242  -3.54390  -0.10377
C    -5.01951  -2.18390   0.04733
C    -4.07402  -1.27630  -0.39079
H    -4.22952  -0.21627  -0.25036
H    -5.92397  -1.83001   0.51964
H    -5.53977  -4.25141   0.24574
H    -3.45247  -5.05680  -0.79143
H    -1.75938  -3.45102  -1.56378
C    -2.56156   0.94290  -1.93779
C    -3.64274   0.89871  -2.81240
C    -4.31374   2.06332  -3.13693
C    -3.91177   3.27367  -2.59194
C    -2.84173   3.32079  -1.71308
C    -2.16929   2.15680  -1.38563
H    -1.33993   2.16814  -0.67915
H    -2.53872   4.26214  -1.27918
H    -4.44055   4.18003  -2.84725
H    -5.15461   2.02987  -3.81413
H    -3.96013  -0.04799  -3.22713
H    -1.94714  -1.51366  -3.66927
H    -0.47644  -2.09359  -2.88884
C    -1.12995   1.07763  -5.24503
H    -1.76171   1.74081  -4.66229
H    -1.77895   0.46092  -5.85768
H    -0.53889   1.69094  -5.91750
O    -1.12250  -0.38915   1.14502
