36

C     2.53262   1.45969   0.06154
H     2.07610   2.22817   0.69125
H     2.26772   1.65866  -0.98211
C     4.04937   1.46238   0.23919
H     4.49632   0.72025  -0.42709
H     4.44438   2.44047  -0.03590
C     4.40323   1.13349   1.68705
H     5.48624   1.09152   1.80957
H     4.02110   1.91921   2.34138
C     3.77695  -0.20222   2.07884
H     4.21348  -1.00424   1.47833
H     3.97649  -0.42262   3.12752
C     2.26760  -0.15622   1.84856
H     1.81119  -1.12154   2.09383
H     1.81280   0.61575   2.47567
C    -2.52667  -1.12028   0.42620
C    -3.11275  -0.65379   1.60506
H    -3.16115   0.40751   1.79588
C    -3.59708  -1.54914   2.53399
H    -4.04921  -1.21126   3.45344
C    -3.50806  -2.91442   2.28115
C    -2.92891  -3.38914   1.10853
H    -2.87050  -4.45352   0.94182
C    -2.44437  -2.49302   0.18055
H    -1.98029  -2.84767  -0.72733
Cl    0.56053  -1.67409  -1.49655
N     1.96422   0.16000   0.44554
H     2.40984  -0.55919  -0.14041
N    -2.00393  -0.20158  -0.51731
H    -2.44178   0.72047  -0.45015
H    -2.02033  -0.56696  -1.47255
N    -4.02476  -3.84817   3.24414
O    -4.52472  -3.39798   4.25386
O    -3.93172  -5.03081   2.98923
Pt    0.00000   0.00000   0.00000
O    -0.42404   1.22535   1.02039
