45

Zn    0.00000   0.00000   0.00000
Cl   -1.94256  -0.92140   0.44041
N    -0.60006   3.09448  -2.93794
O    -3.83420   3.85494  -1.74078
C     0.16381   2.15559  -2.34874
N    -2.91784   3.92485  -2.52885
O    -2.88264   4.68049  -3.48577
C     1.55661   1.85642  -2.73041
H     1.92350   1.02802  -2.12489
H     2.19572   2.72357  -2.56437
H     1.61981   1.57975  -3.78105
N    -0.49837   1.56173  -1.36054
C    -1.72304   2.11306  -1.30703
H    -2.46720   1.78414  -0.60863
C    -1.81804   3.07858  -2.28655
C    -0.23026   3.87892  -4.09171
H     0.84960   4.03152  -4.08477
H    -0.73693   4.84476  -4.03603
C    -0.64792   3.15545  -5.39001
H    -0.37863   3.79915  -6.23853
H    -0.11020   2.20821  -5.48370
O    -2.00134   2.82019  -5.40166
H    -2.53332   3.62429  -5.31033
N     0.54968   2.14732   3.68743
O     2.98917   2.61481   5.07179
C    -0.24336   1.60264   2.74158
N     3.01326   2.53038   3.86106
O     3.97588   2.74960   3.15982
C    -1.70657   1.45658   2.84852
H    -2.02598   0.62837   2.21343
H    -2.21223   2.35667   2.49983
H    -2.00982   1.26740   3.87499
N     0.47512   1.21730   1.69197
C     1.76117   1.53023   1.94464
H     2.55012   1.29524   1.25744
C     1.83733   2.11627   3.18692
C     0.11250   2.78562   4.90801
H     0.96427   2.84770   5.58836
H    -0.67470   2.18488   5.36569
C    -0.41730   4.20587   4.63139
H    -1.26504   4.16308   3.93491
H    -0.76000   4.63314   5.57560
O     0.57785   5.07221   4.16166
H     0.83382   4.83710   3.26284
O     1.47931  -0.59177  -0.42889
