59

Os    0.00000   0.00000   0.00000
Br    1.82143  -1.54158   0.71397
O    -4.66831   3.96866   2.85064
O     3.91885   4.44109  -3.21861
N     0.51665   0.06893  -1.96560
N    -1.33592   1.31654  -0.69243
N    -0.52819   0.12838   1.95893
N     1.08808   1.57178   0.58075
C     1.44853  -0.64327  -2.59912
H     1.99245  -1.36645  -2.00577
C     1.71878  -0.50382  -3.94521
H     2.48093  -1.11392  -4.40093
C     0.99275   0.41873  -4.69565
H     1.18843   0.54952  -5.74845
C     0.00760   1.14473  -4.06570
H    -0.60383   1.85433  -4.60103
C    -0.21996   0.94947  -2.69905
C    -1.21433   1.64039  -1.95055
H    -1.84202   2.39619  -2.41009
C    -2.21035   2.01982   0.13801
C    -2.17607   3.40918   0.20517
H    -1.49705   3.95526  -0.43485
C    -2.97746   4.09667   1.09840
H    -2.91199   5.17277   1.13439
C    -3.84911   3.40051   1.92976
C    -3.91515   2.00692   1.83090
H    -4.61596   1.48224   2.45979
C    -3.10967   1.32470   0.95163
H    -3.18675   0.25275   0.85921
C    -4.67905   5.37042   2.97676
H    -5.40972   5.59007   3.75320
H    -4.98590   5.85572   2.04481
H    -3.70058   5.75449   3.28330
C    -1.32234  -0.68669   2.65329
H    -1.72926  -1.53634   2.12076
C    -1.61705  -0.49595   3.98789
H    -2.26076  -1.19482   4.49585
C    -1.06754   0.59409   4.65970
H    -1.28650   0.76725   5.70175
C    -0.22377   1.43259   3.96724
H     0.25131   2.27699   4.44183
C     0.03981   1.17735   2.61709
C     0.90335   1.97019   1.80929
H     1.38663   2.85809   2.20228
C     1.83332   2.34327  -0.31279
C     2.85265   1.74999  -1.06307
H     3.12126   0.72299  -0.87130
C     3.52935   2.48175  -2.00854
H     4.32007   2.03674  -2.59047
C     3.21050   3.82391  -2.23905
C     2.22001   4.42553  -1.46932
H     1.96081   5.46369  -1.60576
C     1.54876   3.69098  -0.50866
H     0.77629   4.16181   0.08338
C     3.66687   5.79979  -3.48537
H     4.34375   6.07111  -4.29362
H     3.87695   6.42671  -2.61293
H     2.63388   5.96123  -3.81060
O    -1.01385  -1.24358  -0.38486
