24

Re    0.00000   0.00000   0.00000
N     1.82958  -1.12820   0.44938
N    -0.67103  -1.78175   1.29727
H    -0.88308  -2.51151   0.60614
H    -1.50592  -1.66537   1.87157
O     0.36921   1.75222   2.51242
O     1.28412   2.04586  -1.92947
O    -2.84627   1.02686  -0.64133
C     0.22978   1.10690   1.57320
C     0.79008   1.32408  -1.18846
C    -1.77978   0.69685  -0.39022
C     2.95151  -1.00716  -0.25776
H     2.98483  -0.19669  -0.97420
C     4.02779  -1.86256  -0.11424
H     4.90977  -1.72098  -0.71694
C     3.94038  -2.89729   0.80313
H     4.75516  -3.59125   0.93857
C     2.77466  -3.02725   1.53834
H     2.65804  -3.82148   2.25939
C     1.74121  -2.12521   1.33662
C     0.45765  -2.21710   2.12641
H     0.32508  -3.23872   2.50562
H     0.53716  -1.54027   2.98791
O    -0.14538  -1.09997  -1.22124
