68

Cu    0.00000   0.00000   0.00000
S     2.32720   0.37478   0.31977
P    -1.24764   1.47729   1.18531
P    -0.67836  -1.80210   1.24186
N     4.48769  -0.16054  -1.03138
N     2.46808  -0.50841  -2.17255
H     1.43130  -0.47457  -2.17492
C     3.14423  -0.12896  -1.03572
C     5.12424  -0.54681  -2.09604
H     6.20430  -0.54809  -2.02345
C     4.47957  -0.94495  -3.28759
H     5.03354  -1.25838  -4.15412
C     3.11197  -0.90594  -3.27466
H     2.49349  -1.18065  -4.11730
C    -0.41217  -3.55190   0.81738
C     0.25218  -4.42961   1.66830
H     0.56451  -4.09722   2.64891
C     0.50433  -5.72710   1.26181
H     1.01065  -6.40816   1.93084
C     0.11448  -6.15299   0.00262
H     0.31402  -7.16751  -0.30995
C    -0.52079  -5.27305  -0.85920
H    -0.81220  -5.59683  -1.84757
C    -0.77695  -3.97524  -0.46028
H    -1.25229  -3.28546  -1.14396
C    -0.51602  -1.79165   3.05673
C    -1.40259  -2.42702   3.92128
H    -2.22463  -3.00798   3.52650
C    -1.22328  -2.32210   5.28771
H    -1.91463  -2.81211   5.95853
C    -0.15971  -1.59458   5.79964
H    -0.02810  -1.51498   6.86879
C     0.73535  -0.97684   4.94356
H     1.56989  -0.41796   5.33980
C     0.55453  -1.07122   3.57576
H     1.24516  -0.58802   2.89590
C    -2.51556  -1.69568   0.99791
H    -2.68296  -1.58675  -0.07936
H    -2.95714  -2.65059   1.30371
C    -3.18789  -0.54715   1.74853
H    -4.26560  -0.74271   1.76699
H    -2.83726  -0.54043   2.78475
C    -2.97923   0.82986   1.11907
H    -3.64198   1.56705   1.58731
H    -3.23320   0.79294   0.05242
C    -0.92455   1.83187   2.94015
C    -1.84778   1.75896   3.97601
H    -2.88194   1.51687   3.77945
C    -1.44504   2.01354   5.27535
H    -2.16519   1.95142   6.07876
C    -0.13083   2.35189   5.54945
H     0.17337   2.55087   6.56664
C     0.79251   2.43505   4.51911
H     1.81832   2.70102   4.72840
C     0.39964   2.16512   3.22351
H     1.11536   2.20522   2.41106
C    -1.55775   3.13921   0.50335
C    -1.64114   4.28939   1.27945
H    -1.53125   4.22853   2.35327
C    -1.86503   5.51230   0.67276
H    -1.93161   6.40468   1.27853
C    -2.00300   5.59645  -0.70293
H    -2.17669   6.55503  -1.16942
C    -1.91055   4.45315  -1.48051
H    -2.00946   4.51578  -2.55403
C    -1.68176   3.22948  -0.88131
H    -1.59333   2.33809  -1.48788
O    -0.52010  -0.29335  -1.53816
