31

Pd    0.00000   0.00000   0.00000
N    -1.12464  -1.84133  -0.37739
N    -2.02219   0.80496  -0.18021
H    -1.98793   1.66930  -0.71817
C     0.92155   1.77578   0.37463
H     0.25160   2.61687   0.14193
H     1.83791   1.87913  -0.21537
H     1.19268   1.81462   1.43873
C    -0.71536  -3.07273  -0.10093
H     0.35080  -3.18705   0.06213
C    -1.59163  -4.14478  -0.03276
H    -1.22404  -5.13373   0.18839
C    -2.94041  -3.91622  -0.25424
H    -3.65397  -4.72528  -0.20842
C    -3.36351  -2.62587  -0.53522
H    -4.40731  -2.41251  -0.71154
C    -2.42152  -1.60777  -0.58802
C    -2.79427  -0.18553  -0.93986
H    -2.54930  -0.04703  -2.00136
H    -3.87645  -0.04363  -0.82550
C    -3.97371   1.58534   1.19906
H    -4.16853   2.32148   0.42073
H    -4.19011   2.04496   2.15939
H    -4.65613   0.74777   1.07340
C    -2.50974   1.13354   1.17157
H    -1.88590   1.97445   1.50272
C    -2.27200  -0.02699   2.13769
H    -1.21085  -0.32870   2.09931
H    -2.90158  -0.88119   1.89258
H    -2.50329   0.28762   3.15247
O     1.45819  -0.75307   0.17051
