37

Pd    0.00000   0.00000   0.00000
N    -1.68569  -1.25963  -0.63778
N    -1.68855   1.34404   0.34489
H    -1.44723   1.93113   1.14321
C     1.47395   1.10202   0.87752
H     1.06988   2.00657   1.35357
H     2.25173   1.39011   0.16248
H     1.94083   0.47511   1.64858
C    -1.69002  -2.34462  -1.39771
H    -0.71978  -2.67512  -1.75024
C    -2.85870  -3.02042  -1.71253
H    -2.82730  -3.90322  -2.33051
C    -4.05904  -2.53717  -1.21639
H    -4.99067  -3.03457  -1.44160
C    -4.04712  -1.40246  -0.41972
H    -4.96390  -1.00167  -0.01322
C    -2.83279  -0.78643  -0.15012
C    -2.72573   0.40383   0.78149
H    -3.71000   0.88957   0.86922
C    -2.30875  -0.13731   2.15718
H    -2.30419   0.65908   2.89955
H    -1.29284  -0.56112   2.07999
H    -2.99171  -0.91665   2.48740
C    -1.96628   2.24476  -0.79152
C    -3.21319   3.10491  -0.54531
H    -4.12411   2.51194  -0.58668
H    -3.28437   3.87342  -1.31001
H    -3.15766   3.59619   0.42496
C    -0.73636   3.14765  -0.92889
H     0.15308   2.52305  -1.06996
H    -0.59938   3.76217  -0.04104
H    -0.84104   3.80598  -1.78697
C    -2.11305   1.44463  -2.08710
H    -1.23057   0.80432  -2.22259
H    -2.17571   2.12513  -2.93289
H    -3.00986   0.82827  -2.08221
O     1.14313  -1.11426  -0.41733
