35

Zn    0.00000   0.00000   0.00000
Cl   -0.10589  -2.14927   0.38502
S     1.21853   2.31329   3.76495
S    -3.22762   2.50597  -2.03362
N     0.09912   0.95828   1.90401
N    -0.20610   1.68967   6.57002
H     0.70149   2.12226   6.51644
H    -0.45239   1.30546   7.46667
N    -1.80105   0.76188  -0.82102
N    -6.21952   1.40894  -2.38238
H    -7.19623   1.19283  -2.28165
H    -5.99044   2.37992  -2.51258
C     1.03238   1.81849   2.13427
H     1.66414   2.21089   1.35824
C    -0.57399   0.60325   3.04468
C    -1.62936  -0.29975   3.13167
H    -1.97761  -0.80418   2.24710
C    -2.17302  -0.53616   4.37690
H    -2.98659  -1.23802   4.47459
C    -1.69521   0.09828   5.51697
H    -2.14184  -0.11544   6.47653
C    -0.64204   1.00962   5.46226
C    -0.09725   1.25046   4.19798
C    -3.04986   0.19837  -0.89041
C    -3.42048  -1.05460  -0.40926
H    -2.68454  -1.69639   0.04599
C    -4.73438  -1.44224  -0.57132
H    -5.04765  -2.40891  -0.20887
C    -5.66980  -0.62353  -1.19149
H    -6.68911  -0.96175  -1.30334
C    -5.32664   0.63009  -1.69578
C    -3.99560   1.02159  -1.52736
C    -1.75757   1.92883  -1.36904
H    -0.85530   2.50935  -1.42751
O     1.10746   0.92385  -0.80158
