70

Ru    0.00000   0.00000   0.00000
Cl   -1.63320   1.07827   1.37759
P    -0.65485  -2.05231   0.84371
S    -1.65976   0.04048  -1.69868
N     0.49736   1.90133  -0.76245
H     1.22206   1.69763  -1.46486
N     1.61561   0.51937   1.46196
O     3.11474  -0.24251   3.84191
C    -1.29819  -1.11815  -3.04328
H    -1.84503  -0.80458  -3.92757
H    -1.64448  -2.09251  -2.71108
H    -0.22651  -1.14469  -3.22167
C    -1.13064   1.60789  -2.50981
H    -0.34093   1.36108  -3.22168
H    -1.99390   2.01904  -3.03189
C    -0.62111   2.55040  -1.43174
H    -0.32259   3.51292  -1.87611
H    -1.40964   2.72670  -0.69043
C     1.10507   2.65357   0.32307
H     0.32572   2.87708   1.05961
H     1.54296   3.60109  -0.02748
C     2.19476   1.77087   0.93393
H     2.90933   1.50727   0.14564
H     2.72724   2.33061   1.71005
C     1.10440   0.70616   2.83089
H     0.49419  -0.16643   3.07677
H     0.45830   1.58400   2.86410
C     2.21064   0.83781   3.88326
H     2.76225   1.78499   3.76677
H     1.76209   0.82199   4.87790
C     2.60730  -0.56655   1.49318
H     3.06568  -0.66781   0.50707
H     2.06692  -1.49193   1.71787
C     3.68498  -0.35984   2.55847
H     4.34217  -1.23049   2.59434
H     4.29226   0.53103   2.33185
C    -2.22553  -2.60208   0.07221
C    -2.35870  -3.82259  -0.58339
H    -1.52860  -4.51231  -0.62589
C    -3.55322  -4.16045  -1.19676
H    -3.64128  -5.11146  -1.70257
C    -4.62745  -3.28796  -1.16768
H    -5.55849  -3.55868  -1.64390
C    -4.49636  -2.06093  -0.53865
H    -5.32367  -1.36658  -0.52620
C    -3.30204  -1.71359   0.06514
H    -3.19345  -0.73629   0.51545
C     0.31793  -3.60125   0.74100
C     1.44097  -3.67837  -0.07103
H     1.74601  -2.81402  -0.64046
C     2.16172  -4.85816  -0.15932
H     3.03507  -4.90606  -0.79322
C     1.76292  -5.97034   0.56010
H     2.32473  -6.89077   0.49378
C     0.63492  -5.90414   1.36482
H     0.31548  -6.77376   1.92113
C    -0.08524  -4.72935   1.45573
H    -0.96804  -4.68120   2.07882
C    -1.05964  -2.12700   2.63499
C    -2.31171  -1.80913   3.14594
H    -3.12545  -1.57066   2.48103
C    -2.52863  -1.80033   4.51318
H    -3.50859  -1.55175   4.89367
C    -1.50149  -2.10221   5.38995
H    -1.67456  -2.08967   6.45607
C    -0.24978  -2.42455   4.89184
H     0.56087  -2.66424   5.56440
C    -0.03072  -2.43472   3.52749
H     0.94940  -2.70137   3.15339
O     1.14446  -0.42634  -1.10948
