43

Br    1.70425   0.38657  -1.87707
Sc    0.00000   0.00000   0.00000
Br    0.00093  -2.53669  -0.00417
O     1.68477  -0.03221   1.57796
O     0.00068   2.37164  -0.00065
C     1.49452  -0.62529   2.88838
H     0.75975  -1.43479   2.81461
H     1.10266   0.15376   3.55484
C     3.80362  -0.15901   2.62896
H     3.84445   0.79803   3.15174
H     4.81205  -0.54740   2.51664
C     3.09979  -0.00650   1.28852
H     3.32746   0.93262   0.77588
H     3.34353  -0.84617   0.62306
C     2.86186  -1.12156   3.34631
H     2.96010  -1.09450   4.42827
H     3.02876  -2.14123   2.99817
C     0.24474   3.21282   1.14405
H    -0.63332   3.17057   1.80089
H     1.11412   2.82182   1.68305
C     0.45893   4.62160   0.60436
H     1.49575   4.75999   0.29540
H     0.19937   5.38153   1.33650
O    -1.68653  -0.02703  -1.57837
C    -1.49102  -0.61987  -2.88829
H    -0.75565  -1.42858  -2.81212
H    -1.09779   0.15982  -3.55310
C    -3.80134  -0.15745  -2.63633
H    -3.84181   0.79981  -3.15874
H    -4.80956  -0.54744  -2.52791
C    -3.10234  -0.00474  -1.29335
H    -3.33374   0.93313  -0.78007
H    -3.34654  -0.84580  -0.62985
C    -2.85585  -1.11823  -3.35104
H    -2.95036  -1.09122  -4.43328
H    -3.02209  -2.13823  -3.00355
C    -0.24489   3.20843  -1.14844
H     0.63266   3.16398  -1.80577
H    -1.11457   2.81479  -1.68505
C    -0.45907   4.61924  -0.61428
H    -1.49588   4.75914  -0.30604
H    -0.19920   5.37608  -1.34953
O    -1.09649   0.24682   1.20801
