48

Br    2.07772   0.79914   0.24998
Ni    0.00000   0.00000   0.00000
N    -0.10792  -2.03817   1.03237
N     0.36272  -1.09581  -1.60789
N     0.15556   0.61074  -3.19076
N     0.76915  -1.39256  -3.96823
C     0.94902  -2.66287   0.21760
H     1.87463  -2.12427   0.45480
C     1.10483  -4.14827   0.58629
H     0.70096  -4.78856  -0.20288
H     2.15628  -4.40505   0.71391
C     0.32861  -4.39982   1.87992
H     0.52152  -5.41339   2.24268
C    -1.16103  -4.21197   1.58764
H    -1.50507  -4.98014   0.89212
H    -1.73501  -4.31909   2.50923
C    -1.35127  -2.80749   0.98440
H    -1.68464  -2.87146  -0.05395
H    -2.10961  -2.24584   1.53663
C     0.35395  -1.97705   2.42452
H    -0.44726  -1.54127   3.02522
H     1.21263  -1.29938   2.47787
C     0.73646  -3.37606   2.95670
H     0.16221  -3.59749   3.86198
C     2.19401  -3.47308   3.29254
H     2.87815  -3.02330   2.58556
C     2.66074  -4.06011   4.37843
H     2.00570  -4.50974   5.10727
H     3.71480  -4.11604   4.58907
C     0.69117  -2.47375  -1.28417
H     1.60737  -2.77668  -1.80530
H    -0.13199  -3.13182  -1.59381
C     0.41802  -0.67664  -2.83183
C     0.64393   0.88573  -4.52145
H     1.63220   1.36284  -4.47834
H    -0.04266   1.54994  -5.05196
C     0.71353  -0.50866  -5.12755
H    -0.18101  -0.72356  -5.72769
H     1.59766  -0.66053  -5.75034
C    -0.07094   1.73145  -2.31931
H    -0.64230   1.40859  -1.42808
H    -0.67907   2.46298  -2.85448
H     0.86345   2.20965  -2.00396
C     0.34540  -2.74230  -4.28013
H     0.74976  -3.47083  -3.58564
H     0.73191  -2.98152  -5.27020
H    -0.74765  -2.83355  -4.30436
O    -0.73664   0.92013   1.15465
