31

Ni    0.00000   0.00000   0.00000
Cl   -1.40513   1.53639   0.66883
Cl    0.63476  -0.27475   2.10403
N     1.50382   1.72584  -0.19023
C     0.75648   2.84137  -0.30770
N     0.13619   3.07930  -1.45638
H    -0.08812   2.21175  -1.98968
H    -0.58353   3.78560  -1.47407
N     0.80740   3.81043   0.65155
H     0.15882   4.58380   0.58704
C     1.58257   3.66751   1.75829
H     1.51693   4.44339   2.50423
C     2.40775   2.58900   1.85525
H     3.05578   2.44631   2.70131
C     2.33655   1.62562   0.82923
H     2.96622   0.74607   0.84348
Cl   -0.63439   0.27414  -2.10430
N    -1.50311  -1.72671   0.19008
C    -0.75495  -2.84178   0.30688
N    -0.13469  -3.08003   1.45552
H     0.08905  -2.21262   1.98931
H     0.58557  -3.78579   1.47283
N    -0.80516  -3.81032  -0.65297
H    -0.15564  -4.58296  -0.58919
C    -1.58055  -3.66734  -1.75953
H    -1.51427  -4.44264  -2.50601
C    -2.40666  -2.58947  -1.85572
H    -3.05491  -2.44681  -2.70161
C    -2.33597  -1.62654  -0.82926
H    -2.96612  -0.74732  -0.84308
O     1.06095  -1.15852  -0.50469
