39

Zn    0.00000   0.00000   0.00000
Cl   -0.14414  -0.87609  -1.99013
N     1.00720   1.95071  -0.06460
N     1.78342  -0.44633   0.95964
N     3.74615   0.33421   1.63541
N     3.94986   1.07851   4.16536
C     2.50606   0.63626   1.17030
C     2.54718  -1.51415   1.32484
C     1.95562   1.95254   0.87984
C     3.79893  -1.03297   1.76548
C     2.26654  -2.87705   1.30962
H     1.30880  -3.23240   0.96454
C     4.79168  -1.89843   2.20422
H     5.74652  -1.54044   2.55697
C     0.75232   4.30091   0.18452
H     0.25680   5.20677  -0.12469
C     3.25926  -3.72663   1.74364
H     3.08460  -4.79151   1.74731
C     0.42688   3.08746  -0.40352
H    -0.32841   3.01795  -1.17371
C     1.69926   4.30808   1.19508
H     1.95114   5.22375   1.70900
C     4.49696  -3.24565   2.18564
H     5.24060  -3.95182   2.52270
C     2.31426   3.11907   1.55189
H     3.01446   3.09242   2.37046
C     4.82413   1.67704   3.37256
C     5.69498   2.66480   3.82080
H     6.39425   3.12899   3.14191
C     4.83734   1.22144   1.92706
H     4.80030   2.08383   1.25402
H     5.77129   0.68281   1.73093
C     4.71927   2.40570   5.98492
H     4.64325   2.66621   7.02828
C     3.89803   1.43256   5.43678
H     3.16220   0.90934   6.03142
C     5.63709   3.03207   5.15503
H     6.29667   3.79581   5.53981
O    -1.09609   0.52772   1.11472
