55

Ru    0.00000   0.00000   0.00000
B     2.44062   0.39084   1.75292
N     1.57153   1.09343  -0.51054
N    -0.01406   0.91231   1.75954
C     1.61980   1.66276  -1.71483
H     0.74149   1.56398  -2.34436
C     2.72433   2.36735  -2.14925
H     2.72611   2.81695  -3.12936
C     3.81210   2.48079  -1.29460
H     4.69327   3.02618  -1.59807
C     3.74338   1.87708  -0.05307
H     4.57255   1.93549   0.63221
C     2.60707   1.17065   0.33651
C     1.97063  -1.14981   1.39030
H     2.76646  -1.73010   0.92738
H     1.11259  -1.15735   0.66088
H     1.64035  -1.69536   2.27454
C     3.76740   0.41797   2.68835
H     4.61193  -0.06044   2.19630
H     3.60575  -0.11862   3.62103
H     4.07871   1.42724   2.95011
C     1.13072   1.06789   2.43576
C     1.10329   1.70557   3.67386
H     2.02999   1.83635   4.20783
C    -0.08956   2.15208   4.21130
H    -0.11407   2.65164   5.16847
C    -1.26192   1.93221   3.50179
H    -2.22108   2.24295   3.88454
C    -1.17796   1.30701   2.27370
H    -2.06910   1.12972   1.67951
C     0.74623  -2.43706  -1.86132
C     0.58718  -3.33628  -0.80880
H     1.30027  -4.13345  -0.66759
C    -0.47469  -3.21826   0.07585
H    -0.57084  -3.92566   0.88843
C    -1.43863  -2.21816  -0.07044
C    -1.34221  -1.35421  -1.18608
H    -2.21306  -0.77821  -1.50173
C    -0.22091  -1.44173  -2.03948
H    -0.20220  -0.83920  -2.94388
C     1.91461  -2.52315  -2.81222
H     1.73109  -1.82476  -3.63678
C     2.06845  -3.92583  -3.40191
H     2.34206  -4.64619  -2.63557
H     2.84833  -3.92529  -4.15981
H     1.13788  -4.24886  -3.86349
C     3.19799  -2.08598  -2.10029
H     3.44224  -2.77467  -1.29492
H     3.07809  -1.08873  -1.67864
H     4.02978  -2.06769  -2.80067
C    -2.65177  -2.17999   0.82029
H    -3.16598  -1.22372   0.73420
H    -2.37523  -2.34096   1.86164
H    -3.34873  -2.96927   0.53322
O    -1.02297   1.15346  -0.58784
