49

Ag    0.00000   0.00000   0.00000
N     2.93888  -0.86534  -0.62414
C     2.49468  -1.96153  -1.41141
C     2.23905  -1.76638  -2.76859
C     2.33125  -3.20885  -0.81022
C     1.92054  -4.27126  -1.60014
H     1.78686  -5.24244  -1.14632
C     2.38069  -0.40423  -3.37635
H     3.35659   0.02689  -3.15510
H     1.61748   0.26048  -2.96550
H     2.25332  -0.44956  -4.45408
C     2.57038  -3.37511   0.65967
H     1.86143  -2.76209   1.21899
H     3.57679  -3.05884   0.93307
H     2.43807  -4.41192   0.95485
C     1.66787  -4.11067  -2.95512
C     1.82895  -2.85388  -3.52279
H     1.62303  -2.71732  -4.57440
C     1.19442  -5.26166  -3.78716
H     1.58822  -5.19740  -4.79929
H     0.10578  -5.24456  -3.84882
H     1.49345  -6.21051  -3.34823
C     4.25023  -0.54821  -0.39608
C     2.11700   0.00151  -0.00082
H     5.05793  -1.11868  -0.80728
C     4.25010   0.55208   0.39388
N     2.93869   0.86866   0.62233
C     2.49442   1.96468   1.40980
C     2.23833   1.76918   2.76684
C     2.37938   0.40682   3.37426
H     3.35503  -0.02475   3.15281
H     1.61578  -0.25737   2.96328
H     2.25210   0.45193   4.45201
C     1.82842   2.85660   3.52127
C     1.66804   4.11364   2.95398
C     1.92104   4.27455   1.59909
C     2.33151   3.21222   0.80894
C     2.57092   3.37878  -0.66087
H     1.86275   2.76518  -1.22051
H     3.57771   3.06344  -0.93392
H     2.43782   4.41550  -0.95602
H     1.78762   5.24587   1.14549
C     1.19507   5.26461   3.78634
H     1.58884   5.19985   4.79848
H     0.10640   5.24797   3.84796
H     1.49457   6.21347   3.34768
H     1.62242   2.71985   4.57284
H     5.05768   1.12286   0.80491
O    -1.65000  -0.00152   0.00062
