31

Pd    0.00000   0.00000   0.00000
O    -0.23566  -1.44690  -3.76768
N     1.64016   1.21864   0.22590
N     1.60636  -0.00997  -2.49491
N     0.50665  -0.35451  -1.87687
N    -1.57914  -1.16374  -0.49068
C     1.73040   1.90338   1.37133
H     0.92004   1.77355   2.08069
C     2.78927   2.73301   1.68480
H     2.80048   3.25543   2.62693
C     3.81978   2.86300   0.76617
H     4.67451   3.48967   0.97103
C     3.72641   2.17652  -0.42399
H     4.51205   2.27466  -1.15176
C     2.61920   1.35580  -0.69962
C     2.55631   0.70541  -2.01594
C    -0.36399  -1.11872  -2.60400
C    -1.54893  -1.54014  -1.77879
C    -2.55550  -2.30763  -2.34828
H    -2.46560  -2.57522  -3.38971
C    -3.62856  -2.69812  -1.56473
H    -4.42670  -3.29414  -1.98012
C    -3.65108  -2.30529  -0.23569
H    -4.46412  -2.58511   0.41494
C    -2.60859  -1.53850   0.26386
H    -2.59604  -1.21505   1.29896
C     3.70085   0.88950  -2.97443
H     3.47449   0.32151  -3.87187
H     4.63347   0.51927  -2.55271
H     3.82381   1.93568  -3.24979
O    -0.52945   0.11946   1.55817
