63

Pt    0.00000   0.00000   0.00000
C    -0.97082   1.36351   1.08953
C    -2.18535   2.00236   0.87305
H    -2.75767   1.77582  -0.01514
C    -2.67684   2.92769   1.78156
H    -3.62420   3.41240   1.59361
C    -1.96278   3.23701   2.92877
H    -2.35250   3.95965   3.63109
C    -0.75164   2.62031   3.17516
H    -0.19894   2.86437   4.07108
C    -0.25022   1.68839   2.26955
C     1.01054   0.97448   2.44153
C     1.91298   1.08542   3.48807
H     1.72819   1.78913   4.28270
C     3.07359   0.30570   3.50309
C     3.29282  -0.56887   2.43610
H     4.16521  -1.20084   2.43460
C     2.37110  -0.63914   1.39952
C     2.48937  -1.50089   0.21879
C     3.56516  -2.35653  -0.01728
H     4.37595  -2.42069   0.68998
C     3.58439  -3.12358  -1.16767
H     4.41094  -3.79048  -1.36282
C     2.52927  -3.02336  -2.06427
H     2.50933  -3.60449  -2.97190
C     1.49412  -2.15364  -1.76756
H     0.64533  -2.03080  -2.42848
C     4.03121   0.39968   4.60493
C     3.60158   0.65137   5.90954
H     2.54589   0.74313   6.11657
C     4.49854   0.73918   6.95032
H     4.14564   0.91918   7.95499
C     5.86834   0.58348   6.72341
C     6.30445   0.33281   5.42018
H     7.36152   0.22431   5.22694
C     5.40086   0.24097   4.38521
H     5.76827   0.08274   3.38197
C     7.92172  -0.13069   7.78943
C     9.13686   0.37220   8.25216
H     9.19424   1.39735   8.58763
C    10.25793  -0.43449   8.27811
H    11.19421  -0.03250   8.63625
C    10.18963  -1.74589   7.83723
H    11.06825  -2.37238   7.85747
C     8.98539  -2.24873   7.37275
H     8.92083  -3.27279   7.03531
C     7.85658  -1.45281   7.35123
H     6.91493  -1.85071   7.00169
C     6.55841   1.59363   8.81178
C     6.02299   2.85222   8.54130
H     5.77979   3.11897   7.52300
C     5.81376   3.75324   9.56722
H     5.40178   4.72641   9.34437
C     6.14022   3.41941  10.87143
H     5.97974   4.12785  11.66958
C     6.67537   2.17111  11.14424
H     6.92812   1.90092  12.15886
C     6.88099   1.26009  10.12631
H     7.29123   0.28426  10.34153
N     1.26141   0.12056   1.42542
N     1.47349  -1.41847  -0.66642
N     6.77776   0.67839   7.77255
O    -1.04340  -0.16072  -1.26807
