27

Re    0.00000   0.00000   0.00000
Cl   -0.61913   0.91682   1.94730
Cl   -1.89613  -1.39931   0.22544
Cl   -0.96932  -1.20231  -7.00985
Cl    1.54907   1.09530  -2.89485
O    -0.63184   0.99392  -1.17184
N     0.88013  -1.63662   1.12481
N     1.82089  -3.80030   0.78668
N     1.10907  -2.52733  -0.98754
N     0.66080  -1.39088  -1.35487
C     1.03962  -1.77694   2.43720
H     0.70422  -0.94957   3.05132
C     1.59516  -2.92260   2.97711
H     1.71980  -3.02783   4.04094
C     1.97587  -3.92478   2.08487
H     2.41541  -4.85419   2.42012
C     1.28534  -2.67421   0.33914
C     0.33924  -1.32334  -2.71234
C    -0.31624  -2.41739  -3.29260
H    -0.52097  -3.27297  -2.66844
C    -0.72577  -2.38715  -4.60545
H    -1.25205  -3.22459  -5.03420
C    -0.46017  -1.25835  -5.37608
C     0.22627  -0.17911  -4.83857
H     0.45725   0.68151  -5.44510
C     0.62850  -0.20587  -3.51248
O     1.49089   0.64988   0.27821
