61

Re    0.00000   0.00000   0.00000
Cl   -0.49852   1.66317   1.44225
Cl    0.69019  -1.95560  -1.00992
O    -0.21751  -1.35597   1.86947
P    -0.00561  -2.78654   2.24091
N     0.27797   1.10503  -1.64278
N     2.01080   2.13337  -2.94760
N     2.47191   1.14052  -0.92651
N     1.94922   0.52305   0.09611
C    -0.61791   1.48016  -2.56820
H    -1.64462   1.18848  -2.38285
C    -0.24574   2.18141  -3.68664
H    -0.97203   2.47753  -4.42382
C     1.11988   2.48367  -3.83237
H     1.48998   3.02141  -4.69422
C     1.59986   1.46839  -1.86760
C     2.86947   0.22026   1.09294
C     4.22350   0.05873   0.77753
H     4.52540   0.16639  -0.25211
C     5.13257  -0.24104   1.76962
H     6.17483  -0.37067   1.51857
C     4.71547  -0.37290   3.08600
H     5.43126  -0.60170   3.86123
C     3.37819  -0.20123   3.40533
H     3.05253  -0.28922   4.43097
C     2.45516   0.09036   2.42079
H     1.42035   0.25505   2.67832
C     1.73971  -3.15453   2.60801
C     2.66158  -3.12078   1.56789
H     2.32417  -2.90111   0.56461
C     3.99761  -3.36788   1.82281
H     4.71055  -3.34719   1.01253
C     4.41794  -3.64158   3.11443
H     5.46131  -3.83792   3.31186
C     3.50251  -3.66041   4.15314
H     3.83112  -3.86639   5.16128
C     2.16322  -3.41689   3.90307
H     1.44590  -3.43158   4.71159
C    -0.97700  -3.13710   3.72883
C    -1.64850  -2.10076   4.35980
H    -1.56494  -1.10087   3.95912
C    -2.41711  -2.36297   5.48070
H    -2.94406  -1.55982   5.97393
C    -2.51137  -3.65686   5.96605
H    -3.11205  -3.86199   6.83978
C    -1.84185  -4.69328   5.33202
H    -1.92215  -5.70115   5.71185
C    -1.07600  -4.43680   4.21046
H    -0.55354  -5.23522   3.70098
C    -0.61050  -3.98934   1.02219
C     0.12465  -5.08338   0.59144
H     1.12804  -5.24163   0.96002
C    -0.43142  -5.95796  -0.32542
H     0.14203  -6.80464  -0.67342
C    -1.71407  -5.74599  -0.80302
H    -2.13777  -6.42663  -1.52673
C    -2.45472  -4.66382  -0.35577
H    -3.45554  -4.49888  -0.72550
C    -1.90727  -3.79005   0.56419
H    -2.46921  -2.93690   0.91835
O    -1.57770  -0.40014  -0.27063
