57

Ti    0.00000   0.00000   0.00000
N    -0.98147   1.37763   0.66789
N     0.70433   1.13098  -1.21871
C    -1.40355  -1.78954   0.64169
C    -0.08477  -2.28591   0.54068
C     0.35753  -2.11171  -0.79580
C    -0.69873  -1.51530  -1.53584
C    -1.79427  -1.30675  -0.63845
C    -2.27653  -1.94793   1.85680
H    -3.28727  -1.59126   1.66479
H    -1.87156  -1.40864   2.71731
H    -2.34029  -3.00429   2.12926
C     0.64633  -3.01939   1.62559
H     0.42975  -2.58971   2.60379
H     1.72291  -2.98165   1.46904
H     0.33852  -4.06933   1.63862
C     1.68420  -2.57323  -1.33072
H     2.50101  -2.22771  -0.69179
H     1.85316  -2.19917  -2.34006
H     1.72287  -3.66524  -1.36226
C    -0.73641  -1.37179  -3.03303
H     0.22212  -1.02809  -3.42427
H    -1.50441  -0.66671  -3.34693
H    -0.96013  -2.33903  -3.49314
C    -3.20068  -0.94354  -1.03090
H    -3.23954  -0.55361  -2.04643
H    -3.63493  -0.19920  -0.36218
H    -3.83457  -1.83394  -0.99417
C    -2.12129   1.63570   1.50648
H    -1.80367   1.92244   2.52699
H    -2.76880   0.75791   1.58765
C    -2.82393   2.82817   0.83961
H    -3.47787   3.36493   1.52508
H    -3.41509   2.47925  -0.00874
C    -1.64338   3.67559   0.36258
H    -1.37840   4.40326   1.13030
H    -1.86228   4.22116  -0.55182
C    -0.47965   2.66346   0.18611
C     0.71436   3.11051   1.05042
H     1.55673   2.43713   0.90088
H     0.42691   3.06510   2.10062
H     1.01305   4.13013   0.81693
C     1.93536   1.23926  -1.95273
H     1.79668   0.94399  -3.01154
H     2.70578   0.59506  -1.50856
C     2.30492   2.72923  -1.88605
H     2.82305   2.93567  -0.95000
H     2.94179   3.03529  -2.71485
C     0.93784   3.41697  -1.91166
H     0.64234   3.61256  -2.94393
H     0.93430   4.36299  -1.37590
C    -0.03050   2.38411  -1.28822
C    -1.25884   2.18570  -2.19607
H    -1.94343   1.48699  -1.71558
H    -0.93027   1.76781  -3.14669
H    -1.76954   3.12530  -2.39335
O     1.28145  -0.03465   1.03884
