59

Pt    0.00000   0.00000   0.00000
I     1.17424  -2.30343   0.25136
P    -1.17335   1.93978   0.00452
P     1.97944   1.12397  -0.07287
O    -0.12599   3.18206   0.07205
O     3.38805   0.40349  -0.35997
C    -0.47248   4.54145   0.27040
C    -2.31967   2.45524  -1.30871
C    -1.77020   3.05475  -2.43778
C    -2.58372   3.41429  -3.49619
C    -3.94583   3.16936  -3.43480
C    -4.49331   2.56553  -2.31420
C    -3.68571   2.20388  -1.25149
C    -2.12603   2.08521   1.55013
C    -3.03339   3.11467   1.77247
C    -3.67506   3.21108   2.99484
C    -3.41626   2.28664   3.99395
C    -2.51257   1.25903   3.77580
C    -1.86779   1.16230   2.55749
C     4.13782  -0.26604   0.64861
C     1.85759   1.92914  -1.69514
C     1.34875   1.10931  -2.69923
C     1.18204   1.59727  -3.98184
C     1.51199   2.91426  -4.26166
C     2.00483   3.73611  -3.26077
C     2.17998   3.24786  -1.97642
C     2.43089   2.35518   1.19338
C     3.61310   3.07516   1.06015
C     3.97761   3.98465   2.03629
C     3.17371   4.16692   3.15079
C     2.01132   3.42778   3.29913
C     1.64535   2.51731   2.32484
H     0.43800   5.11768   0.10581
H    -0.82433   4.70653   1.29129
H    -0.70400   3.23188  -2.48441
H    -2.15119   3.87727  -4.37094
H    -4.58046   3.44280  -4.26443
H    -5.55295   2.36505  -2.26956
H    -4.11274   1.71506  -0.38820
H    -1.23964   4.86375  -0.43751
H    -3.25079   3.82663   0.98711
H    -4.38460   4.00756   3.16494
H    -3.92604   2.36335   4.94259
H    -2.31681   0.53221   4.54952
H    -1.16978   0.34471   2.37277
H     4.73156  -1.02607   0.14263
H     3.49546  -0.75161   1.38364
H     1.09131   0.07589  -2.47102
H     0.78833   0.95794  -4.75745
H     1.37769   3.30357  -5.26007
H     2.25112   4.76524  -3.48031
H     2.54897   3.89519  -1.19419
H     4.79443   0.44355   1.15715
H     4.24368   2.91446   0.19581
H     4.89202   4.55011   1.93082
H     3.46102   4.87856   3.91048
H     1.39442   3.55628   4.17640
H     0.74360   1.92840   2.43596
O    -1.50031  -0.63823  -0.25344
