30

Br   -1.78158  -1.66397  -1.86441
Br   -1.41541   1.73542  -0.68277
Ni    0.00000   0.00000   0.00000
N     1.94592   1.17783  -0.04633
N     2.50256   0.92801  -1.25590
O    -0.71555   0.19487   1.88666
C     2.85553   1.75162   0.70305
C     4.05746   1.87289  -0.02959
H     4.98063   2.28907   0.31815
C     3.81383   1.34038  -1.26815
C     1.71202   0.30122  -2.20435
C     2.04060   0.22793  -3.55642
H     2.92085   0.71393  -3.93150
C     1.20416  -0.45343  -4.42110
H     1.44476  -0.51681  -5.47039
C     0.05560  -1.05071  -3.92993
H    -0.62019  -1.60391  -4.56008
C    -0.22085  -0.89920  -2.58463
N     0.56615  -0.23418  -1.74179
C     4.78106   1.17382  -2.38173
H     5.77851   1.38060  -2.00130
H     4.58318   1.87440  -3.19377
H     4.76509   0.15672  -2.77101
C     2.56651   2.16660   2.09463
H     1.56438   1.84094   2.36274
H     2.62766   3.25000   2.18556
H     3.28790   1.72332   2.77836
H    -0.79911  -0.65889   2.33419
H    -1.57331   0.64460   1.89315
O     0.67919  -1.44607   0.41243
