57

Pd    0.00000   0.00000   0.00000
C    -1.37049   1.15103   1.08293
H    -1.28833   0.80506   2.12087
C    -1.14832   2.64379   0.89389
H    -1.66654   2.96948  -0.02050
C    -1.54784   3.45628   2.06852
H    -1.14516   3.12263   3.01631
C    -2.38003   4.49612   2.00400
H    -2.79499   4.76923   1.04116
C    -2.81123   5.32454   3.12036
C    -3.86446   6.22088   2.92688
H    -4.33891   6.27483   1.95735
C    -4.31104   7.02659   3.95603
H    -5.13095   7.70938   3.78755
C    -3.70801   6.96160   5.20126
H    -4.05412   7.59183   6.00688
C    -2.65446   6.08543   5.40604
H    -2.17604   6.03508   6.37357
C    -2.20923   5.27591   4.37931
H    -1.38090   4.60627   4.55728
C     1.28694   4.32472   0.11587
C     0.81970   5.47414   0.74073
H     0.03858   5.41056   1.48378
C     1.34539   6.70452   0.38816
H     0.97953   7.59989   0.86880
C     2.33352   6.78981  -0.57965
H     2.73931   7.75333  -0.85002
C     2.79556   5.64343  -1.20634
H     3.56082   5.71126  -1.96499
C     2.27234   4.41112  -0.86068
H     2.60765   3.50523  -1.34468
C     1.52241   2.09923   2.01112
C     1.63282   2.96197   3.09668
H     1.25475   3.97102   3.01833
C     2.23436   2.53205   4.26561
H     2.31544   3.20383   5.10744
C     2.73405   1.24232   4.35460
H     3.19982   0.90746   5.26931
C     2.65124   0.38896   3.26621
H     3.06168  -0.60773   3.32615
C     2.04969   0.81107   2.09085
H     2.03683   0.14115   1.22025
C    -2.42006   0.53450   0.29309
C    -2.41536  -0.97023   0.49070
C    -3.51990  -1.79909   0.58875
H    -4.50907  -1.37236   0.54151
C    -3.31131  -3.16293   0.73107
H    -4.14900  -3.83854   0.81343
C    -2.01095  -3.64717   0.75250
H    -1.81437  -4.70230   0.85423
C    -0.95324  -2.76187   0.61988
H     0.07761  -3.09358   0.58589
N    -1.16093  -1.45502   0.49992
O     0.94323   1.76072  -0.67159
O    -3.16159   1.08097  -0.51491
P     0.67611   2.66020   0.49188
O     1.05324  -0.98608  -0.80052
