25

Pd    0.00000   0.00000   0.00000
Br   -1.20019  -1.95439  -0.53909
N     1.16764   1.62226   0.59710
N    -0.33006  -0.28772   2.04085
N     1.92922   0.29236   2.39008
H     2.71342   0.14799   3.01226
C     1.28951   2.71445  -0.16022
H     0.51185   2.87425  -0.89720
C     2.34805   3.59206  -0.03799
H     2.40605   4.45910  -0.67363
C     3.33874   3.31161   0.89476
H     4.19920   3.95405   0.99798
C     3.20058   2.20091   1.70186
H     3.94123   1.95892   2.44871
C     2.08005   1.37895   1.54094
C     0.75738  -0.31643   2.81487
C     0.74897  -0.95030   4.06201
H     1.65329  -0.99099   4.64978
C    -0.42350  -1.51752   4.51770
H    -0.44902  -2.01787   5.47309
C    -1.56627  -1.42055   3.73357
H    -2.50660  -1.83068   4.06027
C    -1.46960  -0.80969   2.49943
H    -2.32592  -0.74183   1.83949
O     0.41159   0.22432  -1.58202
