64

Ru    0.00000   0.00000   0.00000
P     0.83880   1.60410   1.46439
Si   -1.58254  -0.97916   1.50794
Cl   -3.18933   0.37403   1.80508
Cl   -2.61664  -2.59416   0.59571
O     2.16017  -1.99792   0.52284
N    -0.79384  -1.11865  -1.50293
N    -1.56800   1.33524  -0.69235
H    -2.10497   1.97835  -0.10555
H    -0.90072   1.88259  -1.27309
C     1.34043  -1.20351   0.35889
C    -1.38115  -1.65246   3.30103
H    -1.08323  -0.86642   3.98755
H    -0.62917  -2.43347   3.34097
H    -2.31910  -2.07365   3.65355
C    -0.33624  -2.26475  -1.96262
H     0.58605  -2.63827  -1.53552
C    -0.99181  -3.01572  -2.94517
H    -0.55021  -3.94256  -3.27476
C    -2.19262  -2.58353  -3.44051
H    -2.74571  -3.15993  -4.16631
C    -2.71862  -1.36198  -2.97331
C    -3.96817  -0.84895  -3.37415
H    -4.55216  -1.41101  -4.08688
C    -4.43918   0.32441  -2.85129
H    -5.40872   0.69867  -3.14226
C    -3.66686   1.06512  -1.94799
H    -4.04362   1.99837  -1.55495
C    -2.43317   0.60761  -1.55390
C    -1.95432  -0.63718  -2.02447
C     2.51885   2.25232   1.16102
C     3.46389   1.44130   0.54564
H     3.17390   0.46315   0.18747
C     4.75866   1.89399   0.36713
H     5.48505   1.26378  -0.12420
C     5.12003   3.15420   0.81225
H     6.12939   3.51036   0.66780
C     4.18557   3.95931   1.44365
H     4.46719   4.94106   1.79600
C     2.89058   3.51130   1.62434
H     2.16471   4.14385   2.11610
C     1.06513   1.29663   3.24948
C     1.48148   0.02148   3.61750
H     1.56160  -0.74194   2.85400
C     1.77413  -0.26487   4.93811
H     2.09443  -1.25764   5.21676
C     1.65053   0.72226   5.90232
H     1.87161   0.50032   6.93569
C     1.24487   1.99602   5.53948
H     1.15240   2.76743   6.29000
C     0.96138   2.28913   4.21744
H     0.65172   3.28747   3.94435
C    -0.20963   3.08670   1.38594
C     0.00674   4.03184   0.38430
H     0.85959   3.92494  -0.27283
C    -0.87203   5.08912   0.23022
H    -0.69749   5.82429  -0.54170
C    -1.97702   5.20185   1.06004
H    -2.66114   6.02854   0.93758
C    -2.20978   4.24943   2.04016
H    -3.07867   4.32664   2.67626
C    -1.33561   3.18914   2.20077
H    -1.52662   2.43249   2.94808
O     0.78173   0.86096  -1.17053
