65

Ti    0.00000   0.00000   0.00000
Cl   -1.09142   1.71004   0.96057
Si    1.29868   3.41549  -0.73960
Si   -0.17219  -3.68762   0.51133
C     2.82818  -6.63458   2.06671
C     4.49234   4.82730  -3.55306
C     4.00768  -6.20270   2.67498
H     4.20160  -5.14335   2.75954
C     3.48015  -8.91731   2.44981
H     3.27737  -9.97503   2.36433
C     4.91066  -7.12684   3.16383
H     5.82248  -6.78922   3.63483
C     6.44252   5.74370  -5.30545
H     7.20070   6.09982  -5.98717
C    -1.84231  -4.09612   1.32460
H    -2.17981  -5.08300   1.02491
H    -2.60383  -3.37881   1.03579
H    -1.76344  -4.09157   2.40769
C     4.36231   6.07895  -4.15690
H     3.49603   6.68491  -3.93539
C     2.57037  -8.00185   1.95724
H     1.65552  -8.33155   1.48694
C     4.65032  -8.48372   3.05311
H     5.35863  -9.20287   3.43723
C     6.57630   4.50038  -4.70777
H     7.43971   3.88803  -4.92430
C     5.33508   6.52974  -5.02788
H     5.23090   7.49875  -5.49406
C     1.15146  -0.49319  -2.05689
H     1.61778  -1.42079  -2.36166
C    -0.31625   1.24478  -1.95016
H    -1.18699   1.86597  -2.12524
C     1.79035   0.58644  -1.40726
H     2.83949   0.63154  -1.14498
C     1.71796  -1.43332   0.72002
H     2.47003  -1.91131   0.10554
C    -0.14275  -0.07213  -2.41662
H    -0.85399  -0.63429  -3.00873
C     1.89593  -5.69295   1.57097
C    -0.11431  -1.14598   2.03400
H    -1.04242  -1.33518   2.56075
C     1.89618  -0.24325   1.46052
H     2.79620   0.35625   1.49886
C     0.88651   1.66934  -1.32288
C     0.46738  -1.99860   1.05671
C     2.02837   3.40830   1.02411
H     2.96712   2.86215   1.06310
H     1.33681   2.95620   1.73022
H     2.23100   4.42151   1.35608
C     1.10189  -4.88455   1.14728
C     0.77263  -0.08422   2.29391
H     0.64392   0.67939   3.05084
C     2.63918   3.97052  -1.90403
C    -0.18978   4.58453  -0.92517
H     0.07622   5.59107  -0.61890
H    -1.02338   4.25660  -0.31240
H    -0.52487   4.63316  -1.95702
C     3.49474   4.36386  -2.66341
C    -0.21036  -3.84396  -1.39058
H     0.78676  -3.76714  -1.81583
H    -0.83445  -3.07211  -1.83305
H    -0.61254  -4.80833  -1.68407
C     5.60914   4.03966  -3.83550
H     5.70624   3.07113  -3.36702
O    -1.46828  -0.70681  -0.25901
