54

Ag    0.00000   0.00000   0.00000
N     0.88261   2.12627   2.02534
N    -0.60886   0.65591   2.91645
C     0.09980   1.06411   1.86919
C     1.02816   2.86479   3.27059
C     0.79746   1.91823   4.44101
C    -0.56067   1.25881   4.24007
C     1.65207   2.59092   0.91499
C     1.06858   3.45234  -0.01690
C     1.84727   3.92867  -1.05937
C     3.18032   3.56653  -1.19507
C     3.73314   2.70229  -0.26223
C     2.98772   2.20299   0.79518
C    -0.38042   3.82436   0.08404
C     3.98784   4.07188  -2.35017
C     3.60144   1.25109   1.77853
C    -1.49579  -0.45384   2.76276
C    -2.84845  -0.22496   2.50856
C    -3.70102  -1.31536   2.41375
C    -3.23878  -2.61375   2.56215
C    -1.88743  -2.81527   2.80818
C    -1.00365  -1.75353   2.91170
C    -3.38362   1.16660   2.34336
C    -4.16681  -3.78086   2.42782
C     0.45680  -1.99606   3.14979
H     0.30146   3.68712   3.30734
H     2.02826   3.30336   3.30402
H     1.57907   1.15570   4.44948
H     0.82698   2.45807   5.38721
H    -0.73454   0.47583   4.98363
H    -1.35803   2.00494   4.34438
H     1.40297   4.59130  -1.78789
H     4.76565   2.40074  -0.36482
H    -0.64481   4.13294   1.09389
H    -0.99630   2.96007  -0.17932
H    -0.61621   4.63331  -0.60179
H     5.05304   3.98870  -2.14930
H     3.74662   5.11038  -2.56747
H     3.76155   3.48233  -3.23889
H     2.92951   0.41300   1.96208
H     3.80172   1.74442   2.73065
H     4.54106   0.86444   1.39351
H    -4.74857  -1.14413   2.21169
H    -1.51397  -3.82342   2.91482
H    -4.27579   1.15470   1.72265
H    -2.64399   1.81387   1.87595
H    -3.65366   1.58961   3.31224
H    -3.90398  -4.56843   3.13081
H    -4.09305  -4.19197   1.42105
H    -5.19805  -3.48186   2.59802
H     0.84574  -1.34864   3.93417
H     1.01451  -1.79014   2.23076
H     0.63157  -3.03151   3.42960
O    -0.06086  -0.84461  -1.41613
