33

Mo    0.00000   0.00000   0.00000
Cl    0.82493  -1.75103  -1.27424
P     1.39934  -1.94898   2.33470
P     2.57359   1.30776  -0.53884
O     2.13556   0.20939   0.42024
O     0.24541  -1.45456   1.50514
O    -1.59155  -0.32186  -0.14714
O     0.42040   1.21459  -1.06415
C     0.73941  -3.25590   3.41816
H    -0.05842  -2.83020   4.02283
H     1.51193  -3.66496   4.06038
H     0.32211  -4.04255   2.79344
C     2.72039  -2.69575   1.32592
H     3.20520  -1.92000   0.73649
H     2.26383  -3.41152   0.64287
H     3.44582  -3.19082   1.96426
C     2.09660  -0.65314   3.40922
H     1.27875  -0.19259   3.96294
H     2.56604   0.11097   2.79274
H     2.82235  -1.08319   4.09324
C     2.09711   3.02417  -0.10372
H     2.40317   3.18557   0.93013
H     1.02695   3.19492  -0.19590
H     2.63850   3.70408  -0.75649
C     4.38240   1.42261  -0.14760
H     4.51553   1.60899   0.91532
H     4.86104   2.22068  -0.70586
H     4.86826   0.48109  -0.39397
C     2.71785   0.84986  -2.31025
H     3.01934  -0.19886  -2.33651
H     3.48733   1.46623  -2.76703
H     1.77895   0.96192  -2.84632
O    -0.06736   0.96585   1.33608
