65

C     0.84655   1.89257  -2.01502
C     1.67302   0.75620  -2.52638
H     1.05839  -0.13383  -2.66934
H     2.43826   0.52975  -1.77930
C     2.26616   1.29789  -3.83138
H     3.30083   0.99442  -3.96875
H     1.68772   0.94015  -4.68303
C     2.13710   2.83188  -3.71934
C     3.42125   3.47212  -3.18814
H     3.26752   4.53246  -3.00263
H     4.22302   3.36109  -3.91286
H     3.72031   2.99896  -2.25607
C     1.69793   3.48835  -5.02356
H     1.59866   4.56330  -4.89421
H     0.73990   3.08819  -5.34651
H     2.43463   3.30041  -5.79971
C    -0.71996   2.86431  -0.57646
C    -1.59766   2.54336   0.61268
H    -2.26775   1.73264   0.30548
H    -0.95636   2.20934   1.43401
C    -2.40653   3.74122   1.06228
C    -4.10907   5.21397   0.41693
H    -4.93479   5.18901  -0.28958
H    -3.51619   6.11975   0.27632
H    -4.47640   5.18613   1.44495
N     0.01488   1.77091  -0.99954
H     0.64122   3.85732  -2.47716
N     1.09013   2.97701  -2.71596
O    -0.66723   3.95887  -1.10119
O    -2.26327   4.30931   2.11172
O    -3.31562   4.06764   0.14654
Cl    2.06387   0.56733   0.91106
Pt    0.00000   0.00000   0.00000
N    -0.01564  -1.77069   0.99992
C    -0.84733  -1.89214   2.01543
C    -1.67354  -0.75561   2.52687
H    -1.05875   0.13429   2.66992
H    -2.43875  -0.52899   1.77982
C    -2.26680  -1.29721   3.83186
H    -3.30142  -0.99357   3.96922
H    -1.68831  -0.93959   4.68353
C    -2.13799  -2.83122   3.71980
C    -3.42221  -3.47121   3.18846
H    -3.26864  -4.53156   3.00288
H    -4.22402  -3.36011   3.91313
H    -3.72112  -2.99792   2.25641
C    -1.69902  -3.48782   5.02402
H    -1.59987  -4.56277   4.89459
H    -0.74097  -3.08780   5.34708
H    -2.43576  -3.29985   5.80012
N    -1.09100  -2.97650   2.71646
H    -0.64217  -3.85687   2.47770
C     0.71917  -2.86417   0.57712
C     1.59677  -2.54367  -0.61224
H     2.26696  -1.73292  -0.30535
H     0.95550  -2.20997  -1.43371
C     2.40524  -3.74215  -1.06093
O     2.26082  -4.31197  -2.10921
O     3.31565  -4.06675  -0.14586
C     4.10875  -5.21357  -0.41518
H     4.93429  -5.18834   0.29153
H     3.51550  -6.11902  -0.27401
H     4.47636  -5.18671  -1.44313
O     0.66636  -3.95864   1.10203
O    -1.46424  -0.40215  -0.64558
