59

Pd    0.00000   0.00000   0.00000
Cl   -1.33063   0.03201  -1.85496
N     0.96298  -0.47433   2.79009
N     1.90700   1.22644   1.87055
P    -1.82291  -0.60774   1.18737
C     1.08192   0.19555   1.62840
C     1.71177   0.13864   3.76222
H     1.76249  -0.22944   4.76645
C     2.31051   1.20386   3.18076
H     2.96312   1.94626   3.59196
C     0.06235  -1.58290   2.97930
H     0.28692  -2.05094   3.94199
H     0.22928  -2.31858   2.18032
C    -1.39172  -1.09881   2.93615
H    -1.50758  -0.23552   3.59769
H    -2.05549  -1.90029   3.26934
C     2.33015   2.18642   0.90616
C     1.41255   3.08486   0.35842
C     1.87597   4.01710  -0.56052
H     1.17185   4.70912  -0.99955
C     3.20629   4.06518  -0.94423
C     4.09004   3.14450  -0.39814
H     5.12316   3.14984  -0.71374
C     3.67273   2.19494   0.51828
C    -0.05262   3.05132   0.69300
H    -0.48620   4.04265   0.57951
H    -0.23636   2.70404   1.71281
H    -0.57410   2.38049  -0.02155
C     4.61730   1.14282   1.01294
H     5.58973   1.25893   0.54311
H     4.22108   0.16271   0.74754
H     4.74837   1.18083   2.09354
C     3.66996   5.05799  -1.96458
H     4.72221   5.29581  -1.82818
H     3.08695   5.97446  -1.90976
H     3.54485   4.63828  -2.96276
C    -3.44216   0.19877   1.34979
C    -4.21161   0.17498   2.50973
H    -3.86584  -0.34183   3.39273
C    -5.43971   0.81217   2.53427
H    -6.03583   0.78725   3.43524
C    -5.90670   1.47608   1.41186
H    -6.86676   1.96999   1.43987
C    -5.14124   1.50528   0.25721
H    -5.50186   2.02228  -0.61925
C    -3.91227   0.87294   0.22414
H    -3.30372   0.88179  -0.67202
C    -2.21605  -2.25708   0.51481
C    -1.22668  -2.92954  -0.20199
H    -0.25954  -2.44520  -0.39898
C    -1.47850  -4.19327  -0.70473
H    -0.71530  -4.70963  -1.26777
C    -2.71310  -4.78881  -0.50064
H    -2.91109  -5.77103  -0.90358
C    -3.69878  -4.12071   0.20699
H    -4.66469  -4.58092   0.35612
C    -3.45353  -2.85839   0.71695
H    -4.22697  -2.33038   1.25794
O     1.37886  -0.02013  -0.90601
