58

Rh    0.00000   0.00000   0.00000
O    -0.74693   1.98571  -2.39836
N    -1.02975  -3.84502   3.64502
S     0.34388   1.16873  -1.88491
O    -2.80621   0.99201   0.19155
N     0.67405  -0.90958   2.77944
N    -0.83644  -2.20766   1.88114
C     1.79895   2.26937  -1.78842
H     1.93497   2.74642  -2.75187
H     2.65987   1.67185  -1.51198
H     1.59353   3.01812  -1.02945
C     0.92569   0.15502  -3.28715
H     0.11907  -0.51826  -3.55947
H     1.79656  -0.40420  -2.96554
H     1.15731   0.81314  -4.11625
C    -0.09864  -1.08845   1.68022
C     1.63051   0.15491   2.96911
H     2.01241   0.42826   1.97981
H     2.45748  -0.24326   3.56248
C     1.07201   1.42381   3.64659
C     2.21636   2.43917   3.70361
H     1.88523   3.35400   4.18857
H     2.55707   2.68552   2.70112
H     3.06010   2.04268   4.26417
C    -0.07700   2.00015   2.82003
H    -0.95846   1.36494   2.88539
H     0.21313   2.08391   1.76668
H    -0.34556   2.98919   3.18317
C     0.58392   1.12390   5.06511
H     0.18085   2.02697   5.51732
H     1.40069   0.77041   5.69069
H    -0.20195   0.37178   5.05841
C     0.45568  -1.92420   3.67615
C    -0.52517  -2.75475   3.09634
C    -0.53329  -4.15833   4.83099
H    -0.94691  -5.04989   5.28022
C     0.45626  -3.42722   5.48528
H     0.81672  -3.76296   6.44435
C     0.97712  -2.27774   4.91066
H     1.74504  -1.70227   5.40323
C    -1.82372  -2.79867   1.00918
H    -2.40722  -1.99519   0.55017
H    -2.46767  -3.39244   1.66246
C    -1.24916  -3.71674  -0.10052
C    -2.30993  -4.77343  -0.42261
H    -3.25267  -4.30036  -0.68919
H    -2.47717  -5.42304   0.43352
H    -1.98691  -5.38699  -1.25995
C    -0.95173  -2.89904  -1.35779
H    -0.46463  -3.51990  -2.10590
H    -0.28175  -2.05888  -1.11355
H    -1.87160  -2.50028  -1.78239
C     0.02933  -4.40350   0.38185
H     0.34362  -5.15250  -0.34070
H    -0.13470  -4.89575   1.33784
H     0.83596  -3.68122   0.49002
C    -1.73060   0.59856   0.14152
O     1.55898  -0.50174  -0.20088
