31

Zn    0.00000   0.00000   0.00000
N    -0.04173  -1.82699  -1.21461
C     0.36118  -3.01127  -0.80160
H     0.92010  -3.02195   0.12366
C     0.09900  -4.17707  -1.51178
H     0.44241  -5.12821  -1.13830
C    -0.60925  -4.08683  -2.69992
H    -0.83329  -4.97124  -3.27741
C    -1.02539  -2.84056  -3.13675
H    -1.57797  -2.72763  -4.05704
C    -0.72219  -1.72282  -2.35871
C    -1.14730  -0.39258  -2.74296
H    -1.70973  -0.30604  -3.67440
N    -0.85786   0.60573  -2.00551
C    -1.31274   1.89117  -2.20581
C    -2.46057   2.19931  -2.94589
H    -3.01640   1.40627  -3.42215
C    -2.92378   3.49624  -3.02011
H    -3.81672   3.71199  -3.58687
C    -2.25994   4.51599  -2.35341
H    -2.62995   5.52819  -2.40440
C    -1.12857   4.23001  -1.61075
H    -0.60854   5.00634  -1.07210
C    -0.64846   2.93234  -1.53835
S     0.76554   2.61231  -0.50729
C     2.00008   2.02623  -1.71482
H     2.47585   2.89161  -2.16655
H     1.52789   1.40482  -2.46712
H     2.72051   1.44242  -1.14944
Cl   -1.99031  -0.20865   0.94549
O     1.50780  -0.33508   0.58031
