37

C    -0.80898  -0.71299   2.80798
H    -1.11008  -1.64705   2.35162
C    -0.93099  -0.49827   4.16803
H    -1.33927  -1.27221   4.79708
C    -0.52168   0.71766   4.70145
H    -0.60383   0.91331   5.75930
C    -0.00682   1.67478   3.84806
H     0.32209   2.63336   4.21498
C     0.08587   1.39215   2.48766
C     0.58994   2.32615   1.50975
C     1.10495   3.62834   1.60743
H     1.24749   4.21337   2.49125
C     1.38701   3.98924   0.31123
H     1.79894   4.89825  -0.07839
C     1.04633   2.96064  -1.92903
H     1.31065   1.95680  -2.28210
H     1.78098   3.69092  -2.27890
C    -0.33501   3.31043  -2.44134
C    -1.05715   4.34458  -1.87070
H    -0.66114   4.93009  -1.05308
C    -2.33230   4.65677  -2.33471
C    -2.88740   3.92925  -3.38363
H    -3.87685   4.17344  -3.73621
C    -2.16316   2.89810  -3.95267
H    -2.58987   2.32342  -4.76018
C    -0.89667   2.58512  -3.48603
H    -0.34733   1.76209  -3.91444
C    -3.05559   5.76340  -1.67375
N    -0.31224   0.20480   1.98138
N     0.58316   1.94769   0.22033
N     1.06524   2.95658  -0.49060
O    -2.62676   6.39742  -0.73949
O    -4.25892   6.01394  -2.20913
H    -4.68411   6.74493  -1.73462
Cl    0.45847  -0.21053  -2.18159
Pt    0.00000   0.00000   0.00000
O    -0.48495  -1.57698  -0.02135
