50

Co    0.00000   0.00000   0.00000
P     1.58357   1.52435   0.00836
P    -1.69693  -1.39652   0.08195
O     0.34859  -0.28863   2.85728
O    -1.33763   1.55197  -2.03415
C     0.27036  -0.23945   1.70979
C    -0.77150   0.85911  -1.30879
C     3.29837   1.01714   0.44975
C     3.42779   0.21069   1.73305
C     1.30913   2.92563   1.17685
C    -0.08106   3.53156   1.04380
C     1.91773   2.44545  -1.55375
C     2.20411   1.55347  -2.75464
C    -1.49655  -2.73478   1.33498
C    -2.55669  -3.82924   1.35374
C    -3.33376  -0.64406   0.48221
C    -3.29689   0.17207   1.76601
C    -2.11158  -2.37654  -1.42167
C    -2.13776  -1.58468  -2.72053
H     3.67623   0.42228  -0.38695
H     3.88403   1.94240   0.51288
H     3.00872   0.74020   2.58733
H     2.92588  -0.74908   1.63268
H     4.47859   0.01421   1.93705
H     1.44351   2.53075   2.18916
H     2.08189   3.68071   0.99816
H    -0.23819   4.30056   1.79782
H    -0.22170   3.98185   0.06290
H    -0.84211   2.76141   1.17641
H     1.04199   3.07078  -1.75710
H     2.77026   3.10650  -1.35682
H     1.35307   0.91343  -2.97626
H     2.40418   2.16522  -3.63250
H     3.06569   0.91370  -2.57868
H    -0.51235  -3.17712   1.14398
H    -1.45123  -2.24568   2.31367
H    -3.55498  -3.42074   1.49743
H    -2.54232  -4.41152   0.43647
H    -2.35165  -4.50631   2.18112
H    -3.59571   0.00167  -0.36294
H    -4.08477  -1.43707   0.54538
H    -3.10034  -0.46324   2.62777
H    -2.51061   0.92617   1.71203
H    -4.24606   0.68030   1.92587
H    -1.36014  -3.16925  -1.49310
H    -3.09100  -2.83123  -1.23736
H    -1.14550  -1.20640  -2.95711
H    -2.44858  -2.23193  -3.53852
H    -2.83169  -0.74709  -2.66680
O     0.94923  -1.16401  -0.68304
