45

Cd    0.00000   0.00000   0.00000
Br   -1.78501   4.84474   5.25282
Cl    0.71469  -1.21707   1.90029
N     2.01987   0.71066  -1.34314
N     3.15448   2.47225  -2.04618
H     3.54637   3.40029  -2.06555
N     1.93948   2.72904  -0.02883
N     1.22291   2.10895   0.82780
C     2.33847   1.97108  -1.07519
C     2.62995   0.39772  -2.49476
H     2.51801  -0.57553  -2.93089
C     3.34788   1.48353  -2.95200
H     3.95794   1.61155  -3.82263
C     0.68461   2.81071   1.87135
C     0.44018   4.19213   1.82860
H     0.78744   4.75714   0.97717
C    -0.27696   4.79603   2.83746
H    -0.50213   5.85120   2.79927
C    -0.71766   4.02857   3.90814
C    -0.42996   2.67243   4.00015
H    -0.76280   2.10363   4.85462
C     0.26169   2.05944   2.97929
H     0.48527   1.00025   3.00262
Br    1.78413   4.84438  -5.25371
N    -2.02010   0.71061   1.34282
N    -3.15564   2.47193   2.04506
H    -3.54799   3.39978   2.06400
N    -1.94039   2.72859   0.02786
N    -1.22346   2.10854  -0.82851
C    -2.33922   1.97079   1.07438
C    -2.63026   0.39778   2.49443
H    -2.51796  -0.57527   2.93092
C    -3.34878   1.48342   2.95116
H    -3.95907   1.61145   3.82163
C    -0.68525   2.81026  -1.87213
C    -0.44103   4.19173  -1.82949
H    -0.78845   4.75676  -0.97813
C     0.27599   4.79566  -2.83840
H     0.50098   5.85086  -2.80030
C     0.71672   4.02819  -3.90907
C     0.42934   2.67198  -4.00091
H     0.76227   2.10317  -4.85534
C    -0.26215   2.05895  -2.97997
H    -0.48557   0.99972  -3.00320
O    -0.49808  -0.84885  -1.32434
