64

Cu    0.00000   0.00000   0.00000
S     1.83479  -1.11955   0.84726
S    -1.83200  -1.13171  -0.83838
O     6.97012  -4.87765   3.18900
O     4.66588   2.33013   1.84637
O     2.93023   3.54588   1.09734
O    -6.95896  -4.91541  -3.16227
O    -4.65682   2.30471  -1.89673
O    -2.92607   3.53051  -1.15304
N     4.19025  -0.28005   1.79771
H     4.76228   0.55509   1.97848
N     2.72086   1.34784   1.11056
H     1.79005   1.60637   0.72538
N    -4.18153  -0.30382  -1.81373
H    -4.75142   0.52983  -2.00810
N    -2.71596   1.33224  -1.13814
H    -1.78773   1.59482  -0.74977
C     8.30018  -4.81014   3.64322
H     8.96416  -4.38812   2.88196
H     8.59462  -5.83852   3.84625
H     8.38178  -4.22304   4.56361
C     6.33525  -3.72235   2.85856
C     5.01827  -3.84912   2.41365
H     4.59066  -4.83727   2.35994
C     4.27435  -2.74782   2.05090
H     3.26243  -2.87926   1.71352
C     4.83575  -1.47408   2.12500
C     6.15009  -1.34672   2.57228
H     6.59510  -0.36382   2.63710
C     6.89666  -2.45056   2.93443
H     7.91003  -2.30584   3.27339
C     2.99447   0.01146   1.28595
C     3.54116   2.41111   1.39211
C     3.65379   4.75515   1.33771
H     3.99865   4.76185   2.37780
H     4.53394   4.77574   0.68499
C     2.72129   5.91555   1.04978
H     2.37933   5.86753   0.02001
H     3.24131   6.85457   1.21421
H     1.85385   5.86474   1.70153
C    -8.28714  -4.85228  -3.62295
H    -8.95320  -4.41648  -2.87130
H    -8.58305  -5.88318  -3.81040
H    -8.36365  -4.28005  -4.55312
C    -6.32441  -3.75660  -2.84348
C    -6.88348  -2.48521  -2.93974
H    -7.89432  -2.34352  -3.28730
C    -6.13759  -1.37780  -2.58716
H    -6.58074  -0.39523  -2.66744
C    -4.82639  -1.50112  -2.12975
C    -4.26709  -2.77450  -2.03573
H    -3.25742  -2.90269  -1.69045
C    -5.01033  -3.87937  -2.38882
H    -4.58478  -4.86744  -2.31980
C    -2.98873  -0.00643  -1.29832
C    -3.53461   2.39183  -1.43718
C    -3.65133   4.73561  -1.40904
H    -4.53681   4.75837  -0.76363
H    -3.98781   4.73286  -2.45188
C    -2.72535   5.90165  -1.12293
H    -2.38818   5.86072  -0.09124
H    -3.24914   6.83728  -1.29483
H    -1.85454   5.85169  -1.77028
O    -0.00180   1.64999  -0.00537
