40

Cd    0.00000   0.00000   0.00000
I    -1.26486   1.73978  -1.62737
C    -2.26533   0.84706   2.43632
N    -0.95289   0.99856   2.21390
C    -2.94264   1.59312   3.40137
H    -4.00242   1.45258   3.54918
C    -0.28121   1.87175   2.94178
H     0.77950   1.94990   2.73349
C    -2.23206   2.51073   4.15578
H    -2.73078   3.10385   4.90763
C    -0.87269   2.65206   3.92793
H    -0.28058   3.35174   4.49522
C    -2.96443  -0.12402   1.61242
H    -4.04806  -0.21475   1.72172
C    -2.08485  -2.27571  -1.02523
C    -2.83444  -3.13998  -1.92816
C    -3.43822  -4.49381  -3.57160
C    -2.34773  -3.83998  -3.05056
H    -1.34007  -3.84452  -3.40875
N    -4.49657  -4.17092  -2.76445
N    -4.13823  -3.35490  -1.77549
C    -5.82624  -4.58589  -2.86287
C    -6.76209  -4.12556  -1.93546
H    -6.45481  -3.45273  -1.15319
N    -6.13119  -5.41327  -3.84992
N    -2.29836  -0.81396   0.77566
N    -2.86320  -1.68146  -0.05879
H    -3.87104  -1.84658  -0.07839
O    -0.88475  -2.07773  -1.09838
C    -3.52062  -5.37377  -4.75650
H    -3.86651  -6.36593  -4.47424
H    -2.53864  -5.44742  -5.21580
H    -4.23125  -4.97671  -5.47834
C    -8.06688  -4.56123  -2.06392
H    -8.82206  -4.22918  -1.36725
C    -8.39192  -5.42892  -3.09811
H    -9.39936  -5.78911  -3.22873
C    -7.38272  -5.82127  -3.96171
H    -7.57318  -6.49487  -4.78598
O     1.46138  -0.39960   0.65360
