52

Ni    0.00000   0.00000   0.00000
P     0.92842   1.72104   0.75104
O    -0.92372  -1.50188  -0.80391
N     1.43876  -0.60195  -1.03583
N     1.13032  -1.69513  -1.75855
C     2.70443   1.85935   0.33403
C     3.45419   2.89657   0.87526
C     4.78694   3.06359   0.54935
C     5.38925   2.18014  -0.33485
C     4.65958   1.14498  -0.87735
C     3.30542   0.95421  -0.56010
C     2.65494  -0.17229  -1.17938
C    -0.11544  -2.10497  -1.57196
C    -0.55701  -3.30487  -2.30284
C    -1.86409  -3.75710  -2.13778
C    -2.29836  -4.87889  -2.81718
C    -1.43358  -5.55490  -3.66323
C    -0.13161  -5.10773  -3.82944
C     0.31005  -3.98680  -3.15324
C     0.26509   3.13500  -0.18260
C     0.46661   4.46052   0.18405
C    -0.03270   5.47555  -0.61226
C    -0.72383   5.17692  -1.77553
C    -0.92388   3.85688  -2.14632
C    -0.43047   2.83985  -1.35155
C     0.88339   2.18250   2.49994
C    -0.16175   2.95112   3.00252
C    -0.20581   3.24976   4.35195
C     0.77649   2.77249   5.20504
C     1.80346   1.98472   4.71029
C     1.85677   1.68474   3.36166
H     2.98598   3.57645   1.57238
H     5.35252   3.87502   0.98167
H     6.43000   2.30040  -0.59578
H     5.13531   0.45734  -1.56164
H     3.27569  -0.75558  -1.85865
H    -2.52142  -3.21582  -1.47398
H    -3.31224  -5.22855  -2.68856
H    -1.77438  -6.43179  -4.19454
H     0.53953  -5.63792  -4.48955
H     1.31910  -3.62462  -3.26994
H     0.99629   4.69982   1.09455
H     0.11622   6.50542  -0.32264
H    -1.11258   5.97473  -2.39065
H    -1.46845   3.62282  -3.04871
H    -0.59903   1.79445  -1.61770
H    -0.93962   3.29387   2.33640
H    -1.01431   3.85032   4.74134
H     0.73642   3.00528   6.25884
H     2.56024   1.59896   5.37745
H     2.65157   1.06322   2.97048
O    -1.26666   0.54601   0.90552
