19

C    -0.16056   0.78023   1.85687
C    -0.49104   2.13972   2.06293
C    -0.08072   0.51947   4.21848
H     0.08982  -0.16695   5.03385
C    -0.39934   1.83077   4.44092
H    -0.48548   2.20657   5.44702
C    -0.60659   2.65744   3.33796
H    -0.85734   3.69717   3.48680
C     0.36914  -1.36323   2.80763
H    -0.45493  -1.89245   2.32854
H     0.57488  -1.81904   3.77420
H     1.24435  -1.46241   2.16648
C    -0.70991   3.01547   0.87373
H    -1.00865   4.01719   1.17260
H    -1.47754   2.59103   0.22972
H     0.20293   3.07935   0.28393
Au    0.00000   0.00000   0.00000
N     0.03173   0.03565   2.96749
O     0.13198  -0.66103  -1.50603
