39

Pt    0.00000   0.00000   0.00000
N    -0.16603  -0.87863   1.83270
N     0.38178   1.33276   2.39557
N     0.37368   1.48197   1.10238
N     0.28444   1.37506  -1.46758
C    -0.46230  -2.11730   2.20491
H    -0.63883  -2.82184   1.40237
C    -0.54052  -2.49503   3.53200
H    -0.78343  -3.51235   3.78973
C    -0.29925  -1.53921   4.51651
H    -0.35434  -1.80740   5.56073
C     0.00962  -0.25051   4.14593
H     0.20419   0.52625   4.86613
C     0.07513   0.07642   2.78346
C     0.67413   2.64094   0.48986
C     1.00965   3.84497   1.13888
H     1.04324   3.84962   2.21701
C     1.27023   4.95867   0.39311
H     1.52956   5.88999   0.87167
C     1.18048   4.90528  -1.01264
H     1.35817   5.80794  -1.57882
C     0.86694   3.75156  -1.67304
H     0.77880   3.73995  -2.74835
C     0.62110   2.55812  -0.94669
C     0.28952   1.12765  -2.84223
C     1.40178   1.40931  -3.63788
H     2.28677   1.83168  -3.18369
C     1.38219   1.11348  -4.98515
H     2.25240   1.32872  -5.58914
C     0.26600   0.53210  -5.57838
C    -0.83367   0.24541  -4.77919
H    -1.70731  -0.21419  -5.21808
C    -0.82739   0.53462  -3.42958
H    -1.68505   0.30685  -2.81230
C     0.26588   0.22396  -7.04441
H     0.34924   1.14292  -7.62455
H    -0.64834  -0.28698  -7.33466
H     1.11507  -0.40798  -7.30052
O    -0.26905  -1.34617  -0.91539
