48

Pt    0.00000   0.00000   0.00000
P     1.06033  -0.52917  -1.90884
C    -0.20929  -1.81039   0.85897
N    -0.87897   0.61601   1.71673
C    -1.17893   1.85360   2.06587
H    -0.91481   2.63713   1.36621
C    -1.80644   2.15122   3.27671
H    -2.03003   3.17926   3.51411
C    -2.13122   1.13600   4.14849
H    -2.61713   1.34455   5.09070
C    -1.82208  -0.18675   3.79929
C    -1.18966  -0.39629   2.55793
C    -2.09965  -1.32820   4.60641
H    -2.58607  -1.17037   5.55812
C    -1.76356  -2.57719   4.19582
H    -1.98018  -3.43140   4.82185
C    -1.12193  -2.81082   2.94401
C    -0.83846  -1.70266   2.12165
C    -0.75320  -4.08018   2.47612
H    -0.95725  -4.95220   3.08062
C    -0.13553  -4.20190   1.25371
H     0.14844  -5.18260   0.89735
C     0.13468  -3.08571   0.45320
H     0.62363  -3.24338  -0.49992
C     0.52392   0.17920  -3.48788
C     1.04636   1.36746  -3.98417
H     1.81685   1.88671  -3.43263
C     0.56236   1.88626  -5.17148
H     0.96869   2.80960  -5.55741
C    -0.44490   1.23082  -5.86077
H    -0.82271   1.64260  -6.78513
C    -0.97528   0.05154  -5.36212
H    -1.76619  -0.45545  -5.89554
C    -0.49388  -0.47380  -4.17788
H    -0.90463  -1.38975  -3.77175
C     2.80902  -0.10132  -1.73100
C     3.25196   0.30367  -0.47607
H     2.53018   0.36025   0.34120
C     4.58015   0.63640  -0.28399
H     4.92366   0.95533   0.68890
C     5.46832   0.56519  -1.34514
H     6.50475   0.83145  -1.19902
C     5.03170   0.15483  -2.59549
H     5.72869   0.09937  -3.41891
C     3.70543  -0.18288  -2.79183
H     3.35764  -0.50138  -3.76538
H     1.19376  -1.85107  -2.35931
O     0.15279   1.50974  -0.64795
