47

Os    0.00000   0.00000   0.00000
P     0.73532  -2.17142   0.41847
O    -0.35754   0.95965   2.84146
N     0.08687  -0.69864  -2.03129
H    -0.87097  -1.07354  -2.09481
N    -0.73556   1.60959  -0.94368
C    -1.45460   2.59672  -0.38876
H    -1.48274   2.61489   0.69297
C    -2.13526   3.54525  -1.12394
H    -2.70278   4.30801  -0.61545
C    -2.08473   3.49564  -2.50976
H    -2.61165   4.21441  -3.11666
C    -1.33413   2.48552  -3.09308
H    -1.25982   2.40285  -4.16709
C    -0.67548   1.57031  -2.29337
C     0.17923   0.47626  -2.88759
H    -0.12308   0.27009  -3.92571
H     1.22569   0.81463  -2.89602
C     1.02169  -1.77604  -2.32926
H     2.03832  -1.37588  -2.25546
H     0.87779  -2.16507  -3.35095
C     0.81486  -2.89399  -1.30653
H     1.59713  -3.65093  -1.38998
H    -0.15360  -3.37115  -1.48791
C    -0.40280  -3.41765   1.21840
H    -1.28590  -3.37249   0.56712
C     0.12603  -4.84733   1.24876
H     0.92538  -4.95209   1.97918
H     0.49632  -5.16260   0.27533
H    -0.67783  -5.52204   1.53906
C    -0.84097  -2.95361   2.60403
H    -1.72323  -3.50722   2.92066
H    -1.09037  -1.89331   2.57915
H    -0.06015  -3.11176   3.34423
C     2.43405  -2.51636   1.11101
H     2.55018  -3.59713   1.24679
C     3.51680  -2.00501   0.16729
H     3.33547  -0.95584  -0.05800
H     3.55002  -2.57308  -0.75970
H     4.49148  -2.08838   0.64510
C     2.53954  -1.79566   2.45159
H     3.54828  -1.87877   2.85248
H     1.84716  -2.20655   3.18062
H     2.29931  -0.74095   2.30960
C    -0.20376   0.59712   1.75106
H     1.45972   0.57207  -0.07526
O    -1.51890  -0.62550  -0.15558
