48

C     0.74253   1.16650   2.59836
C     1.73292   2.17072   2.50850
H     2.31011   2.22318   1.59068
C     1.95504   3.04302   3.55023
H     2.71888   3.80286   3.46078
C     1.20572   2.94981   4.71437
H     1.38325   3.63186   5.53212
C     0.22767   1.97197   4.82302
H    -0.35776   1.90097   5.72997
C    -0.02082   1.08431   3.79521
C    -1.06084   0.00765   3.90480
H    -1.57313  -0.09737   2.94056
H    -1.78991   0.25238   4.67923
C    -0.38969  -1.33960   4.23170
H     0.38241  -1.50791   3.47385
H     0.08970  -1.28194   5.21060
C    -1.36761  -2.46102   4.20607
C    -2.09219  -2.91596   3.14836
H    -2.02521  -2.48579   2.16355
C    -2.94802  -3.99068   3.48070
H    -3.59578  -4.47768   2.77358
C    -2.86531  -4.33985   4.78814
H    -3.39298  -5.11178   5.31201
C    -2.06586   2.16427   0.81739
H    -2.55816   3.12319   0.60344
H    -1.53843   2.23821   1.77067
H    -2.82971   1.38460   0.89167
C    -1.76933   1.82739  -1.55311
H    -2.54749   1.05814  -1.58229
H    -1.03171   1.62455  -2.33475
H    -2.23579   2.80220  -1.75409
C     0.73033  -2.37830  -1.57884
H     1.37680  -3.22812  -1.84015
H     0.81234  -1.62155  -2.36452
H    -0.30384  -2.73141  -1.52423
C     1.08761  -2.79696   0.77265
H     0.05709  -3.12080   0.94284
H     1.47586  -2.35298   1.69195
H     1.69675  -3.67352   0.51007
N     0.52364   0.34902   1.57011
N    -1.11981   1.80768  -0.24095
H    -0.36889   2.50893  -0.24605
N     1.10914  -1.79468  -0.29157
H     2.06859  -1.43668  -0.37614
S    -1.73913  -3.35888   5.64323
Cl    1.40943   0.89399  -1.55327
Ti    0.00000   0.00000   0.00000
O    -1.42016  -0.83619  -0.08020
