53

C     0.42347   2.03227  -2.12705
C    -0.39900   2.29686  -3.24623
H    -1.38738   1.85431  -3.25502
C     0.03806   3.09148  -4.28073
H    -0.61089   3.27859  -5.12516
C     1.30320   3.65887  -4.24163
H     1.64396   4.28948  -5.04917
C     2.13033   3.41468  -3.15466
H     3.11224   3.86546  -3.13611
C     1.72824   2.61062  -2.10737
C     2.59267   2.32484  -0.90551
H     2.25636   1.35423  -0.49540
C     4.08123   2.23423  -1.22826
H     4.23752   1.57847  -2.08188
H     4.62535   1.82546  -0.37933
H     4.49708   3.21178  -1.46371
C     2.30574   3.39630   0.17779
H     2.73417   4.34877  -0.13930
H     1.22090   3.49774   0.26234
C     2.86949   2.97901   1.49629
C     4.16573   3.31866   1.87898
H     4.76827   3.94625   1.24093
C     4.66356   2.84418   3.07844
H     5.66766   3.09042   3.39235
C     3.85184   2.04563   3.87053
H     4.20072   1.64889   4.81055
C     2.57210   1.77446   3.42133
H     1.89579   1.16728   4.00919
C     1.57122  -1.26222  -2.34140
H     2.43918  -1.36063  -1.68325
H     1.56160  -0.25690  -2.76888
H     1.65862  -1.99807  -3.15364
C     0.27829  -2.85030  -1.06654
H     0.33678  -3.57617  -1.89013
H    -0.66375  -2.99712  -0.53201
H     1.11027  -3.03242  -0.38114
C    -1.46658   2.17075   1.46869
H    -2.42774   1.69019   1.26173
H    -1.19919   2.78788   0.60754
H    -1.57110   2.80629   2.35956
C    -0.77146   0.30940   2.82023
H    -0.89091   0.91575   3.72993
H     0.02337  -0.42295   2.98500
H    -1.70946  -0.22389   2.63401
N    -0.00930   1.26043  -1.13773
N     2.09161   2.22776   2.27294
N     0.35416  -1.47497  -1.55886
H    -0.45394  -1.31050  -2.17079
N    -0.44427   1.14541   1.66685
H     0.46751   1.62162   1.86104
Cl    1.81598  -0.83725   1.03750
Ti    0.00000   0.00000   0.00000
O    -1.52640  -0.62457   0.05018
