38

Ru    0.00000   0.00000   0.00000
Cl   -0.68846  -3.30623  -0.81979
Cl   -2.81559   1.78330   0.95898
O     1.45073   0.51541  -1.23840
N     1.09502  -1.73555   0.18933
N    -0.59362   1.94380  -0.36231
O     1.38807   0.66052   1.38769
N    -1.14637  -0.53475   1.09377
C     1.42009   1.75878  -1.58696
C     0.89376  -2.94323  -0.28886
C     0.32414   2.56442  -1.14194
C    -1.86361   3.96748  -0.30335
O    -1.85317  -1.01839   1.86767
C    -1.65191   2.61856   0.02623
C     2.29536  -1.42383   0.74316
C     3.14057  -3.61142   0.17199
C     1.90626  -3.91869  -0.32839
C    -0.93545   4.61774  -1.06875
C     2.41070  -0.13535   1.35559
C     0.20542   3.92544  -1.52762
C     4.58639  -1.95663   1.34653
C     3.63770   0.19083   1.93479
C     3.37413  -2.34723   0.75828
C     2.38747   2.36792  -2.38682
C     2.27146   3.70793  -2.74125
C     1.20980   4.48344  -2.33335
C     4.69827  -0.70865   1.91542
H    -2.75498   4.45510   0.05481
H    -1.07031   5.65518  -1.33544
H     1.13255   5.51770  -2.62872
H     3.03911   4.14555  -3.36237
H     3.22176   1.77621  -2.73013
H     3.74323   1.15749   2.40166
H     5.63333  -0.41318   2.36805
H     5.41647  -2.64510   1.34899
H     3.94217  -4.33437   0.14137
H     1.68161  -4.88215  -0.75408
O    -0.89055  -0.28331  -1.35984
