38

Ti    0.00000   0.00000   0.00000
Cl   -1.40284  -1.52283   0.95919
N    -0.14409  -0.44004  -1.65363
C     0.08088  -0.31348  -2.94073
C    -0.39543  -1.24445  -3.90271
C    -0.14937  -1.07342  -5.24022
C     0.57756   0.01995  -5.71215
C     1.06476   0.95032  -4.81620
C     0.82783   0.79181  -3.45969
C     1.33124   1.74261  -2.44745
F     2.03291   2.77368  -2.91290
F     2.12056   1.14104  -1.50317
F     0.31726   2.29791  -1.68884
N     1.47535  -1.56010   0.36826
C     2.71799  -1.54363  -0.40298
C     1.75467  -1.72897   1.79656
N    -1.66284   1.36928   0.13978
C    -2.74223   1.06389  -0.80236
C    -2.19144   1.51890   1.49926
H     0.92660  -2.37393   0.06324
H    -1.26383   2.27678  -0.12004
H    -0.96184  -2.08881  -3.53631
H    -0.52716  -1.79931  -5.94640
H     0.75860   0.13829  -6.76825
H     1.63213   1.80356  -5.15849
H     2.48730  -1.50342  -1.46959
H     3.29819  -0.65900  -0.13124
H     3.32201  -2.43876  -0.19919
H     0.81366  -1.80258   2.34797
H     2.31320  -0.86357   2.16026
H     2.34788  -2.63522   1.98025
H    -2.34787   1.04737  -1.82093
H    -3.54988   1.80580  -0.73676
H    -3.14689   0.07583  -0.56719
H    -1.38164   1.78884   2.18073
H    -2.96485   2.29769   1.53773
H    -2.62792   0.57213   1.82530
O     0.82242   1.04090   0.98115
