63

Pt    0.00000   0.00000   0.00000
Cl    1.60479   1.25441   1.22414
Cl   -1.63508   1.70683   0.07225
O    -1.92415  -2.07452   3.06423
O     3.27069   1.12138   6.17938
N    -0.77555  -0.78860   1.70394
N    -2.15298  -0.74951   3.56782
C    -1.18917  -1.98265   1.96663
C    -1.16780   0.06028   2.84009
C     0.01627   0.35978   3.72838
C     0.87260  -0.65225   4.14968
C     1.94361  -0.36425   4.96482
C     2.18696   0.94615   5.38022
C     1.32766   1.95846   4.96493
C     0.25423   1.65915   4.14661
C     3.58754   2.42267   6.61212
C    -0.94366  -3.24470   1.24515
C    -3.53027  -0.39124   3.29454
H    -1.61807   0.99364   2.48586
H     0.71175  -1.67192   3.83191
H     2.61963  -1.13853   5.29012
H     1.48816   2.98265   5.26110
H    -0.39673   2.45417   3.81457
H     4.48358   2.31952   7.22216
H     2.78409   2.85094   7.22018
H     3.79895   3.08543   5.76728
H     0.12059  -3.36729   1.05134
H    -1.33043  -4.07000   1.83622
H    -1.44395  -3.20475   0.27648
H    -3.74755  -0.32278   2.22222
H    -4.16903  -1.14428   3.75149
H    -3.71366   0.56989   3.76789
Cl   -1.60377  -1.25578  -1.22411
N     0.77611   0.78839  -1.70382
C     1.18984   1.98239  -1.96648
O     1.92491   2.07422  -3.06401
N     2.15367   0.74921  -3.56761
C     1.16844  -0.06057  -2.83992
C    -0.01561  -0.36012  -3.72822
C    -0.87174   0.65197  -4.14978
C    -1.94276   0.36400  -4.96492
C    -2.18632  -0.94643  -5.38008
O    -3.27005  -1.12166  -6.17924
C    -3.58699  -2.42298  -6.61184
H    -4.48302  -2.31986  -7.22189
H    -2.78355  -2.85136  -7.21983
H    -3.79844  -3.08562  -5.76692
C    -1.32718  -1.95879  -4.96458
C    -0.25373  -1.65953  -4.14626
H     0.39706  -2.45462  -3.81406
H    -1.48780  -2.98302  -5.26059
H    -2.61861   1.13835  -5.29042
H    -0.71069   1.67168  -3.83223
H     1.61872  -0.99392  -2.48569
C     3.53093   0.39087  -3.29427
H     3.74816   0.32236  -2.22195
H     4.16974   1.14390  -3.75117
H     3.71430  -0.57026  -3.76765
C     0.94430   3.24447  -1.24502
H    -0.11996   3.36711  -1.05134
H     1.33116   4.06975  -1.83607
H     1.44449   3.20453  -0.27631
O     1.14101  -1.19086  -0.04952
