30

W     0.00000   0.00000   0.00000
Cl    0.15264  -0.90837   2.30304
C     0.77373  -1.79761   0.49136
O     1.29550  -2.82444   0.60909
C    -1.58321  -1.02782  -0.54408
O    -2.51000  -1.63472  -0.85130
C    -0.50512   1.29792  -1.43305
O    -0.80801   2.04931  -2.24412
C     1.61345  -0.36329  -1.33300
O     1.80054  -1.28800  -2.24444
C     0.76605  -2.18315  -2.60562
C     2.75720   0.51982  -1.20690
C     3.81631   0.52685  -2.12815
C     4.88523   1.37876  -1.96810
C     4.92782   2.24076  -0.87956
C     3.90681   2.25315   0.05396
C     2.82002   1.39969  -0.09867
O     1.78965   1.30434   0.77170
C     1.77816   2.12298   1.92655
H     0.99136  -2.51410  -3.61914
H     0.76064  -3.04494  -1.93546
H    -0.20711  -1.68494  -2.56582
H     3.76449  -0.14303  -2.97147
H     5.68921   1.37991  -2.68719
H     5.76521   2.90968  -0.75334
H     3.96532   2.92917   0.89162
H     1.75763   3.18247   1.65460
H     0.86157   1.87803   2.46464
H     2.64323   1.91095   2.56201
O    -0.86796   1.30943   0.50453
