33

C    -1.99126   2.01158  -1.51487
H    -1.92696   1.25747  -2.29168
C    -2.68195   3.19866  -1.70248
H    -3.17026   3.40242  -2.64171
C    -2.73144   4.10699  -0.65688
H    -3.25950   5.04267  -0.76480
C    -2.09747   3.79566   0.53599
H    -2.12430   4.47937   1.37080
C    -1.43455   2.58075   0.64877
C    -0.72498   2.14815   1.90457
H    -1.00455   1.09939   2.11198
H    -1.01517   2.77415   2.74897
C     0.80871   2.21030   1.73318
H     1.13733   3.25894   1.66793
H     1.27291   1.75529   2.61727
C     2.13736   1.93865  -0.19559
H     2.68115   2.84547   0.08799
C     2.50781   1.36470  -1.44161
C     3.61313   1.70084  -2.19934
H     4.35306   2.40923  -1.87183
C     3.68499   1.01569  -3.41480
H     4.47659   1.12695  -4.13347
C     2.61074   0.18684  -3.58487
C     1.24405  -1.52388   0.57863
H     1.25899  -2.31425  -0.17707
H     0.85976  -1.94370   1.51773
H     2.26539  -1.15474   0.73593
N    -1.38670   1.72083  -0.37218
N     1.21362   1.47352   0.56582
S     1.50349   0.19634  -2.25244
Br    2.28857  -0.91235  -5.06505
Pd    0.00000   0.00000   0.00000
O    -1.12475  -1.10081  -0.49563
