60

Pd    0.00000   0.00000   0.00000
P    -1.43922  -0.75234   1.49124
N    -2.60765   0.36555   1.87750
H    -2.92221   0.90049   1.06718
N     1.45009   0.79066  -1.32277
O    -4.93318   2.08775   2.30013
C    -2.21733  -2.30144   0.90045
C    -1.80501  -2.72674  -0.35997
H    -1.02705  -2.15214  -0.87975
C    -2.37211  -3.84611  -0.93922
H    -2.04909  -4.17666  -1.91545
C    -3.36516  -4.54065  -0.26575
H    -3.81314  -5.41408  -0.71632
C    -3.79307  -4.11121   0.97984
H    -4.57538  -4.64864   1.49635
C    -3.22536  -2.99198   1.56426
H    -3.56966  -2.65456   2.53156
C    -0.73111  -1.04863   3.14269
C     0.10147  -0.01118   3.55359
H     0.24868   0.82834   2.87298
C     0.73395  -0.06725   4.77915
H     1.38085   0.73667   5.09842
C     0.54550  -1.17220   5.59699
H     1.04203  -1.22458   6.55483
C    -0.26439  -2.21511   5.18242
H    -0.39601  -3.08042   5.81590
C    -0.90359  -2.15919   3.95380
H    -1.51787  -2.98556   3.62591
C     1.51964  -1.18204   0.54714
C     1.47425  -2.41076   1.19400
H     0.53626  -2.77988   1.59623
C     2.61364  -3.18769   1.34304
H     2.55254  -4.13618   1.85820
C     3.82374  -2.75571   0.83117
H     4.71253  -3.35897   0.94665
C     3.88830  -1.54919   0.15539
H     4.82694  -1.21098  -0.26375
C     2.74877  -0.77315   0.01178
C    -3.62961   0.19572   2.89262
H    -3.18868  -0.32701   3.74654
H    -4.49349  -0.36983   2.52216
C    -4.13001   1.56948   3.33286
H    -4.71449   1.48148   4.26341
H    -3.27115   2.23049   3.52257
C    -5.33030   3.41572   2.51415
H    -5.93528   3.69964   1.65576
H    -4.46298   4.08351   2.58664
H    -5.92619   3.51125   3.43138
C     2.76910   0.54630  -0.71699
H     3.55959   0.57893  -1.48427
H     2.96699   1.34851   0.00644
C     1.28535  -0.01695  -2.53226
H     0.25933   0.08791  -2.90085
H     1.48230  -1.06983  -2.30454
H     1.98007   0.30857  -3.32086
C     1.29122   2.20506  -1.64921
H     0.31117   2.36889  -2.10016
H     2.07056   2.53737  -2.34998
H     1.35084   2.80227  -0.73555
O    -1.22503   0.87938  -0.66969
