41

Pt    0.00000   0.00000   0.00000
C     0.90757  -1.18274  -1.43327
C    -1.30881  -1.58207   0.24626
C     1.27643  -0.41678   1.58601
C     2.66419  -0.27720   1.45908
C     3.01022  -0.80554   3.78306
C     1.64122  -0.82230   3.95710
C     3.51408  -0.48598   2.53859
C     0.78495  -0.61435   2.88255
N     2.74395   1.47462  -0.22559
N     1.43622   1.65645  -0.37599
C     1.25651   2.91244  -0.74994
C     2.48705   3.56321  -0.83824
C     3.41531   2.60627  -0.49095
C     3.29505   0.19976   0.16955
N    -1.21132   0.76819   2.77444
N    -1.07637   1.20663   1.52735
C    -1.65863   2.39266   1.46462
C    -2.18072   2.73278   2.71253
C    -1.86955   1.66499   3.52556
C    -0.69280  -0.51371   3.19014
H     1.51274  -0.54154  -2.08125
H     0.14896  -1.63809  -2.07122
H     1.52248  -1.98674  -1.02349
H    -2.21308  -1.21184   0.73864
H    -1.62052  -1.95947  -0.72851
H    -0.89325  -2.42049   0.80915
H     4.58221  -0.39198   2.40080
H     3.67296  -0.98973   4.61441
H     1.22802  -0.99443   4.94116
H     0.27802   3.29500  -0.96338
H     2.66787   4.58004  -1.11721
H     4.48352   2.65867  -0.42626
H     4.36975   0.33709   0.30739
H     3.13943  -0.52606  -0.63230
H    -1.70687   2.94097   0.54463
H    -2.70837   3.62507   2.97684
H    -2.07794   1.49060   4.56198
H    -1.25057  -1.30909   2.68997
H    -0.85785  -0.59985   4.26630
O    -0.99233   0.62134  -1.16263
