50

Pd    0.00000   0.00000   0.00000
Br    1.39278   1.13522  -1.68835
O     3.38192  -2.35299   2.50859
O     3.43505  -3.39855   0.52067
N    -1.26469  -0.46200  -1.48992
N     2.59300  -0.01181   1.32131
N     1.22187   1.27670   2.42173
C    -1.14120  -1.68005  -2.01137
H    -0.41075  -2.34181  -1.54308
C    -1.89838  -2.10370  -3.08826
H    -1.76627  -3.09861  -3.48252
C    -2.82118  -1.22855  -3.64045
H    -3.43026  -1.52785  -4.47964
C    -2.94277   0.03921  -3.09421
H    -3.64373   0.75472  -3.49334
C    -2.14120   0.38372  -2.02007
H    -2.19428   1.37349  -1.57510
C     1.31567   0.41584   1.39214
C     3.34447   0.59158   2.30605
C     4.68691   0.51539   2.63840
H     5.36543  -0.12729   2.10144
C     5.11787   1.29490   3.69435
H     6.15671   1.26353   3.98442
C     4.24374   2.12337   4.39548
H     4.62429   2.71611   5.21309
C     2.90392   2.20659   4.06804
H     2.23648   2.85643   4.61179
C     2.46180   1.42779   3.00991
C     3.03100  -1.08804   0.47729
H     3.93906  -0.81116  -0.06858
H     2.23950  -1.31887  -0.26080
C     3.29922  -2.34206   1.31177
C     3.69148  -4.65943   1.15373
H     4.34226  -4.49208   2.01835
H     2.73767  -5.06110   1.51195
C     4.33285  -5.58780   0.14018
H     5.27255  -5.17087  -0.21243
H     3.67268  -5.72614  -0.71156
H     4.52360  -6.55184   0.60227
C    -0.01011   1.82323   2.94805
H     0.13025   1.96694   4.02186
H    -0.80074   1.07749   2.80168
C    -0.43540   3.13960   2.29284
H     0.38458   3.85952   2.33999
H    -1.27046   3.53718   2.87295
C    -0.86707   2.93713   0.84423
H    -1.55908   2.08020   0.77847
H     0.00648   2.77191   0.20738
H    -1.38325   3.81971   0.47267
O    -0.88025  -0.94633   1.02573
