47

Ni    0.00000   0.00000   0.00000
Cl    1.49149   1.49234  -0.00029
N     1.08282  -1.08428  -1.53303
C     1.19153  -2.40864  -1.48925
H     0.68977  -2.90665  -0.67023
C     1.88453  -3.14273  -2.43786
H     1.94185  -4.21675  -2.35201
C     2.49157  -2.47451  -3.48784
H     3.03900  -3.01447  -4.24703
C     2.37763  -1.09540  -3.53850
H     2.83176  -0.52657  -4.33497
C     1.66832  -0.44577  -2.54158
H     1.58095   0.63260  -2.54491
N     1.08398  -1.08287   1.53274
C     2.40834  -1.19163   1.48893
H     2.90636  -0.68989   0.66992
C     3.14241  -1.88462   2.43756
H     4.21643  -1.94199   2.35168
C     2.47419  -2.49161   3.48757
H     3.01414  -3.03907   4.24674
C     1.09509  -2.37760   3.53825
H     0.52625  -2.83172   4.33473
C     0.44546  -1.66829   2.54133
H    -0.63290  -1.58087   2.54470
N    -1.08294   1.08402  -1.53274
C    -1.19168   2.40839  -1.48896
H    -0.68994   2.90642  -0.66995
C    -1.88468   3.14247  -2.43759
H    -1.94205   4.21648  -2.35172
C    -2.49168   2.47425  -3.48759
H    -3.03914   3.01420  -4.24677
C    -2.37769   1.09514  -3.53826
H    -2.83180   0.52630  -4.33474
C    -1.66838   0.44551  -2.54133
H    -1.58096  -0.63285  -2.54471
N    -1.08435   1.08293   1.53293
C    -2.40872   1.19162   1.48915
H    -2.90673   0.68985   0.67013
C    -3.14282   1.88462   2.43775
H    -4.21684   1.94193   2.35190
C    -2.47461   2.49167   3.48774
H    -3.01459   3.03911   4.24692
C    -1.09550   2.37774   3.53840
H    -0.52668   2.83189   4.33487
C    -0.44586   1.66843   2.54148
H     0.63251   1.58107   2.54482
O    -1.16705  -1.16640  -0.00027
