37

Pt    0.00000   0.00000   0.00000
N    -0.10991  -1.74587   1.21243
C    -0.35572  -2.98573   0.81685
H    -0.46283  -3.12274  -0.25201
C    -0.47095  -4.03905   1.70654
H    -0.67092  -5.03580   1.34863
C    -0.32531  -3.77664   3.06261
H    -0.41179  -4.57041   3.78930
C    -0.06830  -2.48269   3.47473
H     0.04279  -2.26733   4.52470
C     0.03917  -1.46916   2.51953
C     0.31322  -0.06635   2.83216
C     0.54573   0.38573   4.13090
H     0.52605  -0.30758   4.95550
C     0.80520   1.72097   4.36545
H     0.98528   2.07906   5.36678
C     0.82994   2.58803   3.27780
H     1.02973   3.63900   3.40837
C     0.59500   2.08523   2.01654
H     0.60788   2.73320   1.15076
N     0.33889   0.79229   1.77834
C     0.10004   1.71750  -1.02929
C    -1.00130   2.55882  -1.13793
H    -1.94650   2.27347  -0.68726
C    -0.93485   3.76670  -1.81903
H    -1.81879   4.38342  -1.87945
C     0.25606   4.15828  -2.41459
C     1.36789   3.32296  -2.32069
H     2.28474   3.63500  -2.79685
C     1.28573   2.12272  -1.64292
H     2.16201   1.48498  -1.59848
O     0.44401   5.32822  -3.10409
C    -0.65792   6.18027  -3.27944
H    -0.29347   7.01795  -3.87274
H    -1.03605   6.55543  -2.32167
H    -1.47110   5.68296  -3.81880
O    -0.29437  -0.77612  -1.42600
