35

Rh    0.00000   0.00000   0.00000
O     0.88184  -0.37670  -2.81785
N    -0.69898   0.03161   1.89981
N    -4.03306   0.85133   3.17318
C    -0.17708  -0.51111   2.98137
H     0.82647  -0.90632   2.89302
C    -0.87633  -0.61508   4.19264
H    -0.38527  -1.06966   5.03860
C    -2.16872  -0.16983   4.28231
H    -2.75290  -0.26041   5.18412
C    -4.53250   1.37982   2.08822
H    -5.56512   1.69656   2.15871
C    -3.82285   1.57423   0.89299
H    -4.29289   2.05918   0.05196
C    -2.50747   1.16501   0.82940
C    -1.96128   0.53083   1.97831
C    -2.75690   0.42172   3.14464
C    -1.60109   1.39886  -0.29494
C    -0.35684   2.07972  -0.13558
H    -0.08398   2.57109   0.79794
C    -0.01499   2.79094  -1.42804
H    -0.07748   3.87453  -1.28339
H     0.99308   2.57647  -1.79145
C    -1.07776   2.32129  -2.37548
C    -1.21726   2.56365  -3.72562
H    -0.49295   3.16300  -4.25701
C    -2.30956   2.02386  -4.39111
H    -2.43392   2.20722  -5.44775
C    -3.24091   1.24817  -3.71722
H    -4.07937   0.83378  -4.25691
C    -3.10460   0.99038  -2.36312
H    -3.81925   0.36785  -1.84508
C    -2.01733   1.53223  -1.69380
C     0.55383  -0.18925  -1.74037
O     0.77274  -1.41909   0.33399
