56

I    -0.15326  -2.69145  -0.38833
Cd    0.00000   0.00000   0.00000
N     1.09894   0.61692  -2.01543
N    -1.69017   0.55920  -2.00865
N    -2.29556   0.32211   0.71905
C     0.48585   0.29943  -3.15277
C     1.16096   0.29077  -4.36923
H     0.64580  -0.00241  -5.27057
C     2.49183   0.66423  -4.40224
H     3.03523   0.66907  -5.33486
C     3.11121   1.03350  -3.21831
H     4.14401   1.34108  -3.19858
C     2.37430   0.98507  -2.04893
H     2.82111   1.24557  -1.09616
C    -0.95935  -0.11885  -3.07385
H    -1.43549   0.02686  -4.05620
H    -0.96089  -1.19552  -2.86701
C    -2.86774  -0.18785  -1.57696
H    -2.62163  -1.25557  -1.55656
H    -3.71815  -0.05255  -2.26445
C    -3.27403   0.18855  -0.17489
C    -4.60987   0.34480   0.17777
H    -5.38292   0.23116  -0.56706
C    -4.92921   0.63997   1.49241
H    -5.95976   0.76440   1.78978
C    -3.90388   0.77242   2.41576
H    -4.10764   0.99895   3.44975
C    -2.60053   0.60482   1.97871
H    -1.76442   0.70251   2.66236
C    -2.07961   1.92126  -2.41009
H    -2.81417   2.28390  -1.68875
H    -2.58561   1.89029  -3.38545
C    -0.88192   2.83558  -2.43398
C    -0.40512   3.35983  -1.21578
C    -1.12947   3.29505   0.00716
H    -2.11859   2.86310   0.02648
C    -0.63880   3.83434   1.15886
H    -1.22208   3.78827   2.06727
C     0.62685   4.45140   1.18844
H     1.00755   4.83823   2.12037
C     1.35252   4.54737   0.04313
H     2.32039   5.02672   0.03997
C     0.85850   4.03376  -1.18306
C     1.58991   4.16826  -2.35707
H     2.56791   4.62749  -2.32080
C     1.08122   3.75078  -3.58019
C     1.81813   3.95207  -4.77512
H     2.78247   4.43345  -4.69918
C     1.32306   3.57023  -5.98199
H     1.88567   3.73118  -6.88921
C     0.04817   2.97652  -6.05164
H    -0.35625   2.70842  -7.01689
C    -0.67633   2.74457  -4.92236
H    -1.65672   2.30656  -5.02856
C    -0.19192   3.09524  -3.63264
O     0.94704   0.59151   1.21479
