18

Cl   -1.06607  -1.84695   0.54958
C    -2.10311   2.67563   0.40531
C     0.26455   2.76006   1.19078
C     0.78745   2.03572   0.02683
C     1.20992   1.57069  -1.02139
C    -4.39365   2.92524  -0.12093
H    -1.23069   4.26266   1.24645
H     0.21102   2.05991   2.05005
H     0.94342   3.57794   1.44802
H     1.74592   1.36822  -1.91576
H    -4.27121   2.65533  -1.17147
H    -5.12942   3.71835  -0.01492
H    -4.70242   2.04003   0.43805
N    -1.04162   3.32740   0.91369
O    -3.18580   3.45304   0.40435
Pd    0.00000   0.00000   0.00000
S    -2.15308   1.11899  -0.17823
O     1.42882  -0.79765   0.21147
