40

Zn    0.00000   0.00000   0.00000
N     1.22752   4.38692   0.75544
C     1.01107   2.97987   0.67231
H     0.52355   2.74906  -0.30012
Cl   -1.76061  -1.33965   0.24560
N     1.88215   4.95436   1.77495
C     1.19938   6.53470   0.33683
H     1.03791   7.49478  -0.10663
N     0.11311   2.51344   1.71221
C     1.87196   6.24850   1.53505
H     2.34155   6.92690   2.21939
N    -0.54545   1.36956   1.54229
C    -0.16159   3.05846   2.90810
H     0.29208   3.97547   3.22602
N     2.05255   0.83577   0.58172
C    -1.05968   2.22120   3.53389
H    -1.50342   2.35016   4.49888
N     1.43054  -1.67573   0.02380
C    -1.26363   1.17378   2.63516
H    -1.88922   0.30754   2.71957
C     2.27178   2.13773   0.67538
C     3.55274   2.67293   0.69451
H     3.70336   3.73442   0.79726
C     4.62468   1.80254   0.58325
H     5.63516   2.18231   0.58267
C     4.38909   0.44481   0.45601
H     5.21241  -0.23813   0.32815
C     3.07124  -0.01096   0.47099
C     2.70688  -1.42865   0.32372
C     3.62548  -2.46477   0.48101
H     4.64649  -2.26019   0.75914
C     3.20423  -3.77111   0.29597
H     3.90024  -4.58843   0.41298
C     1.88060  -4.00720  -0.03491
H     1.51104  -5.00749  -0.19137
C     1.02507  -2.92107  -0.15081
H    -0.02629  -3.04371  -0.37256
C     0.79668   5.31094  -0.13434
H     0.25726   5.02651  -1.01431
O     0.07520   0.92737  -1.36265
