69

Pd    0.00000   0.00000   0.00000
I    -1.93837   1.74607   0.30710
N     1.93403   1.65807   1.68857
N     0.35001   0.65219   2.79714
N     2.60500  -1.56649  -0.30338
N     1.87641  -0.60578  -2.11881
C     3.86919   0.65265   0.69989
C     4.91435   0.65448  -0.25457
C     5.91439  -0.34028  -0.26362
H     5.90469  -1.09165   0.51271
C     6.88528  -0.34065  -1.22427
H     7.64804  -1.10428  -1.22422
C     6.90071   0.65019  -2.21790
H     7.66753   0.62598  -2.97729
C     5.96506   1.64578  -2.21494
H     5.98605   2.42382  -2.96409
C     4.95620   1.68696  -1.22943
C     3.99176   2.71591  -1.19345
H     4.02733   3.48925  -1.94627
C     3.02837   2.74084  -0.22392
H     2.28779   3.52556  -0.18105
C     2.96860   1.70196   0.71652
C     0.89673   0.80101   1.57682
C     1.01480   1.44312   3.70733
C     0.83929   1.65722   5.06449
H     0.05513   1.16354   5.61559
C     1.70282   2.54630   5.67666
H     1.59393   2.74344   6.73188
C     2.70081   3.20736   4.96430
H     3.34055   3.90564   5.48136
C     2.88693   2.99541   3.61110
H     3.65316   3.51288   3.05517
C     2.03649   2.09359   2.99651
C    -0.75320  -0.22704   3.09360
H    -0.95854  -0.85890   2.20830
H    -1.65100   0.34858   3.33338
H    -0.49522  -0.86907   3.93802
C     3.61427  -0.50927   1.59329
C     3.93796  -0.48611   2.97101
C     4.72415   0.54158   3.53266
H     5.12929   1.30016   2.87864
C     4.98209   0.56493   4.87371
H     5.58529   1.35390   5.29632
C     4.46711  -0.43501   5.71287
H     4.66977  -0.39275   6.77231
C     3.73058  -1.46142   5.19263
H     3.35086  -2.24589   5.83094
C     3.45630  -1.52632   3.81014
C     2.71464  -2.58607   3.24703
H     2.34444  -3.36515   3.89668
C     2.46733  -2.63287   1.90340
H     1.90562  -3.44068   1.45841
C     2.91481  -1.58729   1.08249
C     1.65170  -0.74963  -0.80007
C     2.96608  -1.36002  -2.49264
C     3.58868  -1.56314  -3.71317
H     3.22939  -1.09188  -4.61382
C     4.67994  -2.41158  -3.72785
H     5.18815  -2.59893  -4.66103
C     5.13218  -3.04436  -2.57220
H     5.97770  -3.71167  -2.63530
C     4.52047  -2.84323  -1.34906
H     4.86282  -3.33941  -0.45435
C     3.43846  -1.98130  -1.32508
C     1.09579   0.23551  -2.99114
H     0.40615   0.84802  -2.37929
H     0.50876  -0.37008  -3.68651
H     1.75757   0.89748  -3.55295
O    -0.86307  -1.13599  -0.82895
