28

N     1.67254  -1.25579   0.38191
S     1.72148   1.48539  -0.60411
Re    0.00000   0.00000   0.00000
O    -0.13790   0.55995   1.54933
O    -0.29488  -1.26913  -1.32492
C    -0.14114  -2.55424  -1.45760
C    -0.91626  -3.27590  -2.38081
C    -0.77353  -4.63766  -2.49506
C     0.16184  -5.32385  -1.71759
C     0.96345  -4.63654  -0.84043
C     0.83585  -3.24688  -0.68301
C     1.76661  -2.52003   0.11318
C     2.75556  -0.54999   0.90960
C     2.90760   0.78101   0.48162
C     4.00083   1.52705   0.90543
C     4.92014   0.97124   1.77247
C     4.75471  -0.33091   2.22655
C     3.68814  -1.09222   1.79199
H    -1.63731  -2.73008  -2.97050
H    -1.39286  -5.18269  -3.19079
H     0.25861  -6.39381  -1.81469
H     1.69900  -5.15833  -0.24513
H     2.66510  -3.05948   0.41337
H     4.10260   2.54326   0.55987
H     5.75880   1.55817   2.11311
H     5.45759  -0.75200   2.92855
H     3.54941  -2.09363   2.17177
O    -1.27802   0.85668  -0.59603
