60

Pd    0.00000   0.00000   0.00000
Cl   -1.91349   1.04299   0.65147
P    -0.65514  -0.29296  -2.16343
P     1.91596  -0.71419  -1.00748
C     3.01260   0.84226  -1.10976
C     2.98598  -2.27404  -0.82298
C    -1.72306  -1.87218  -2.13153
C    -1.26110   0.89589  -3.51660
C     1.06515  -0.85026  -2.67877
H     1.50601  -0.19643  -3.42966
H     1.07846  -1.86637  -3.06997
C     3.64242   1.09062  -2.48227
H     2.91114   1.46263  -3.19628
H     4.10477   0.19675  -2.89172
H     4.41391   1.85316  -2.38505
C     4.09503   0.77998  -0.03112
H     4.89963   0.10038  -0.29758
H     3.65631   0.47985   0.91944
H     4.52993   1.77071   0.09733
C     2.09768   2.02045  -0.74129
H     1.75422   1.92847   0.30077
H     1.22919   2.07413  -1.40223
H     2.64974   2.95573  -0.83120
C     2.06567  -3.49205  -0.93557
H     1.53851  -3.53766  -1.88599
H     1.34801  -3.49078  -0.11689
H     2.66047  -4.40085  -0.85024
C     3.56029  -2.29679   0.59827
H     4.48378  -1.73535   0.68127
H     3.77425  -3.32305   0.89234
H     2.83434  -1.88699   1.30310
C     4.07638  -2.36584  -1.88631
H     4.81643  -1.57939  -1.77025
H     3.65269  -2.30713  -2.88834
H     4.59223  -3.32109  -1.79471
C    -1.37754  -2.89867  -3.21277
H    -1.28811  -2.44693  -4.19684
H    -2.16848  -3.64606  -3.25710
H    -0.45229  -3.42315  -2.98512
C    -3.20279  -1.49381  -2.21045
H    -3.50184  -1.21903  -3.21807
H    -3.41439  -0.67440  -1.52495
H    -3.80745  -2.34868  -1.90920
C    -1.50563  -2.49285  -0.74285
H    -1.88846  -1.82167   0.04177
H    -0.44805  -2.69589  -0.55714
H    -2.04871  -3.43517  -0.67290
C    -0.25688   2.04693  -3.61566
H    -0.23848   2.60373  -2.68031
H    -0.57291   2.73275  -4.40093
H     0.74794   1.71168  -3.86307
C    -2.58455   1.51586  -3.05354
H    -2.72523   2.48332  -3.53280
H    -2.56827   1.67228  -1.97328
H    -3.44083   0.90061  -3.30505
C    -1.38822   0.21846  -4.87785
H    -2.17183  -0.53361  -4.87927
H    -0.44931  -0.24914  -5.17235
H    -1.64386   0.96332  -5.63067
O     0.58947  -0.11800   1.53659
