57

Rh    0.00000   0.00000   0.00000
P    -0.48509   2.22306  -0.20519
H    -0.01705   2.76134  -1.40240
C     0.40699   3.30698   0.96867
C     0.35086   2.97169   2.33235
C     0.94668   3.80397   3.26920
H     0.88226   3.54681   4.31733
C     1.62586   4.95100   2.89401
C     1.75255   5.21893   1.53910
H     2.32706   6.08116   1.22967
C     1.17322   4.41386   0.56931
C    -0.28699   1.70455   2.80598
H    -1.36375   1.71011   2.65341
H    -0.09081   1.54944   3.86483
H     0.11414   0.84264   2.24581
C     2.25938   5.84979   3.91066
H     2.11080   6.89473   3.64573
H     3.33330   5.66594   3.95436
H     1.84292   5.67308   4.89914
C     1.45379   4.74629  -0.86809
H     0.55363   5.04521  -1.39915
H     1.88852   3.88805  -1.37993
H     2.16492   5.56739  -0.92569
C    -2.19973   2.98346  -0.38042
C    -2.86643   2.19189  -1.50549
H    -2.27890   2.25419  -2.42244
H    -3.86263   2.58242  -1.70624
H    -2.95651   1.14505  -1.22112
C    -2.08634   4.45673  -0.77018
H    -1.60796   4.56970  -1.74192
H    -1.52402   5.01743  -0.02498
H    -3.08316   4.89103  -0.83810
C    -3.01310   2.86140   0.90324
H    -3.09467   1.81788   1.19815
H    -4.01920   3.24575   0.73837
H    -2.55660   3.43980   1.70552
C     2.08139   0.41804   0.07228
H     2.25924   1.45833   0.35020
C     1.73229   0.15635  -1.25199
H     1.62037   1.01396  -1.91507
C     2.08777  -1.12989  -1.96764
H     3.01320  -1.52763  -1.54858
H     2.28021  -0.90998  -3.01992
C     0.96000  -2.17321  -1.87920
H     0.27389  -2.02527  -2.71724
H     1.37070  -3.18498  -1.97060
C     0.15990  -2.07843  -0.60277
H    -0.85432  -2.46568  -0.69351
C     0.69111  -1.95247   0.66638
H     0.05055  -2.22099   1.50691
C     2.17459  -1.97199   0.96306
H     2.67576  -2.59740   0.22279
H     2.33374  -2.43704   1.93810
C     2.79005  -0.55963   0.98191
H     2.74500  -0.16390   2.00009
H     3.84919  -0.60777   0.70398
O    -1.53936  -0.34055   0.48671
