60

Fe    0.00000   0.00000   0.00000
Br    1.37924   1.13833   1.37573
N    -1.63191   0.69100  -0.06667
C    -2.59627   0.21127   0.75853
C    -3.91065   0.66296   0.65552
H    -4.66039   0.27288   1.32454
C    -4.22415   1.60407  -0.31433
H    -5.23595   1.96632  -0.40649
C    -3.24141   2.06597  -1.17769
H    -3.46387   2.78109  -1.95293
C    -1.94022   1.58673  -1.03817
C    -2.05125  -0.74431   1.66032
H    -2.65735  -1.24226   2.40562
N    -0.77687  -0.97555   1.51506
C    -0.78551   1.90990  -1.80339
H    -0.81900   2.61212  -2.62589
N     0.30522   1.29472  -1.44204
C    -0.06934  -1.76876   2.41244
C     0.96204  -2.56133   1.90692
H     1.15894  -2.54770   0.84383
C     1.70333  -3.37523   2.73764
H     2.49034  -3.98789   2.32568
C     1.43332  -3.40057   4.09644
H     2.00735  -4.03575   4.75375
C     0.43846  -2.59162   4.61321
H     0.25048  -2.57823   5.67702
C    -0.31872  -1.75944   3.79705
C    -2.29964  -1.36513   5.24735
H    -2.36858  -2.43344   5.39824
C    -3.21036  -0.51709   5.85155
H    -3.98576  -0.92538   6.48338
C    -3.12636   0.85038   5.65069
H    -3.83805   1.51135   6.12295
C    -2.12118   1.36780   4.84996
H    -2.04105   2.43447   4.70183
C    -1.21108   0.52446   4.24091
H    -0.41825   0.93240   3.63279
C    -1.29905  -0.85330   4.42628
C     1.54354   1.61633  -1.98790
C     2.46266   0.58217  -2.17013
H     2.17449  -0.42600  -1.90593
C     3.70967   0.82793  -2.70550
H     4.40269   0.01305  -2.84741
C     4.06517   2.12010  -3.05744
H     5.03837   2.32132  -3.47863
C     3.17550   3.15740  -2.84832
H     3.46238   4.17185  -3.08451
C     1.91530   2.93557  -2.30559
C     0.72424   4.99121  -3.03865
H     1.08696   4.81151  -4.04113
C    -0.07373   6.08980  -2.77410
H    -0.32573   6.77386  -3.57137
C    -0.54534   6.31384  -1.49164
H    -1.16827   7.17189  -1.28646
C    -0.20646   5.44003  -0.47137
H    -0.55782   5.61833   0.53406
C     0.58846   4.33951  -0.73096
H     0.86452   3.67031   0.06958
C     1.05227   4.09874  -2.02219
O    -0.25534  -1.24538  -1.05182
