16

Cu    0.00000   0.00000   0.00000
N    -2.45852  -1.68583   0.01472
N    -6.95626  -4.78890   0.04285
C    -3.56897  -2.45172   0.02061
C    -3.46453  -3.81565   0.30711
C    -4.59934  -4.59587   0.31342
C    -5.83884  -4.01779   0.03427
C    -4.80927  -1.87174  -0.26005
C    -5.94154  -2.65565  -0.25271
C    -1.49910  -1.01567   0.01001
C    -7.91500  -5.45524   0.05193
H    -4.54050  -5.65093   0.53245
H    -4.86946  -0.81686  -0.47945
H    -2.49802  -4.24537   0.52088
H    -6.90870  -2.22729  -0.46651
O     1.37139   0.91739  -0.01326
