67

Pd    0.00000   0.00000   0.00000
Cl    1.06313  -0.42008  -1.96962
P    -1.41581   0.14508   1.72226
C     1.52076  -0.06243   1.58778
C     2.33292   0.84297   0.84357
C     3.31401   0.32300  -0.03572
C     3.44106  -1.01670  -0.25981
C     2.72953  -3.33670   0.15802
C     1.98473  -4.23745   0.86926
C     1.12338  -3.78577   1.87641
C     0.97973  -2.44631   2.12455
C     1.67780  -1.48450   1.35799
C     2.61847  -1.95442   0.40005
N     2.24799   2.21263   1.08961
C     0.91984   2.79786   1.03433
C     3.26277   3.07184   0.51491
C     0.98923   0.31903   2.93481
C    -0.36847   0.36651   3.19518
C    -0.85555   0.63166   4.48836
C     0.01808   0.86220   5.50987
C     2.32170   1.06607   6.34097
C     3.66992   1.00646   6.12875
C     4.16641   0.69530   4.85426
C     3.31243   0.46408   3.81247
C     1.91396   0.53560   3.99204
C     1.41211   0.82737   5.29017
C    -2.80383   1.28540   1.94367
C    -4.03324   0.96162   1.37389
C    -5.09156   1.84519   1.46745
C    -4.93228   3.05682   2.12091
C    -3.70751   3.38796   2.67694
C    -2.64250   2.51083   2.58428
C    -2.18053  -1.49892   1.88463
C    -1.85779  -2.47051   0.93879
C    -2.39812  -3.73958   1.04542
C    -3.25176  -4.04528   2.09307
C    -3.57361  -3.08025   3.03443
C    -3.04214  -1.80781   2.93276
H     3.94309   0.99808  -0.59080
H     4.17403  -1.37683  -0.96550
H     3.41822  -3.66850  -0.60485
H     2.06953  -5.29561   0.67309
H     0.56547  -4.50022   2.46405
H     0.32467  -2.12049   2.92178
H     1.00385   3.88191   1.08555
H     0.31887   2.46905   1.88503
H     0.39566   2.53333   0.08264
H     3.17593   4.05373   0.97992
H     3.16038   3.18955  -0.57066
H     4.25119   2.67973   0.74702
H    -1.92258   0.66293   4.65531
H    -0.34503   1.07467   6.50516
H     1.92803   1.29405   7.32115
H     4.35966   1.19013   6.93908
H     5.23382   0.63644   4.70144
H     3.70490   0.21791   2.83826
H    -4.14499   0.02442   0.84791
H    -6.04265   1.59111   1.02376
H    -5.76014   3.74662   2.19101
H    -3.57878   4.33554   3.17946
H    -1.68737   2.77788   3.01690
H    -1.18934  -2.22775   0.10359
H    -2.15305  -4.49051   0.30950
H    -3.67217  -5.03673   2.17501
H    -4.24285  -3.31962   3.84788
H    -3.30119  -1.05013   3.65919
O    -1.40617   0.23547  -0.83051
