51

C    -1.88049  -0.89761   5.23216
H    -1.47128  -1.89132   5.38589
H    -2.95196  -0.96005   5.38360
H    -1.47914  -0.25281   6.00783
C    -2.05612   1.59441   3.35955
H    -1.81351   2.02331   2.39045
H    -1.57748   2.21339   4.11524
H    -3.12966   1.68828   3.49317
C     0.42817  -0.20952   3.40246
H     0.86231   0.23581   4.29667
H     0.82590  -1.21410   3.27920
C     2.59411   0.25212   1.59495
C     3.35975  -0.55630   2.41976
H     2.99096  -0.87832   3.38159
C     4.61826  -0.95722   2.00247
H     5.20689  -1.59711   2.64273
C     5.12051  -0.54183   0.78188
H     6.09954  -0.86419   0.46248
C     4.36464   0.29379  -0.02667
H     4.75040   0.62898  -0.97723
C     3.10426   0.69292   0.37545
H     2.51525   1.34751  -0.25519
C    -3.79934  -2.72334   2.60837
H    -4.58000  -2.13424   3.07581
H    -3.36740  -3.35853   3.37498
H    -4.27321  -3.36716   1.87423
C    -3.36473  -0.51831   0.47708
H    -2.68529   0.19022   0.00290
H    -4.17165   0.06287   0.91379
H    -3.78902  -1.13219  -0.31443
C    -1.30932  -2.82394   0.92205
H    -1.25988  -3.76718   1.46549
H    -1.65771  -3.01239  -0.09244
C     1.15564  -3.18683  -0.46370
C     0.65273  -4.41222  -0.86540
H    -0.25785  -4.80822  -0.44406
C     1.32571  -5.13295  -1.83681
H     0.92523  -6.08118  -2.16134
C     2.49589  -4.64521  -2.39026
H     3.01076  -5.21121  -3.15088
C     3.00148  -3.42553  -1.97017
H     3.91118  -3.03478  -2.39904
C     2.33543  -2.69563  -1.00655
H     2.71698  -1.73646  -0.68775
I    -0.51227   2.48402  -0.61516
Pt    0.00000   0.00000   0.00000
S     0.95710   0.81821   2.01298
S     0.39082  -2.20283   0.80885
Si   -1.50940  -0.22674   3.48615
Si   -2.50589  -1.57121   1.81143
O    -0.45520  -0.56589  -1.48157
