35

Os    0.00000   0.00000   0.00000
Cl    0.71873  -0.33950   2.13068
Cl   -0.40635   2.21219   0.33826
Cl   -0.71554   0.22510  -2.20803
N     2.41217  -0.16338  -1.69881
H     1.85812  -0.81756  -2.23592
N     1.89591   0.41141  -0.60150
C     2.80217   1.20761  -0.07835
H     2.59977   1.77266   0.81125
C     3.97827   1.16401  -0.85909
C     5.23553   1.77615  -0.79957
H     5.46960   2.46806  -0.00625
C     6.14611   1.46500  -1.77783
H     7.12522   1.91889  -1.76185
C     5.83922   0.56387  -2.81021
H     6.59150   0.35326  -3.55512
C     4.61365  -0.05263  -2.89576
H     4.37740  -0.74442  -3.68836
C     3.68134   0.25621  -1.90713
N    -2.65661  -1.27789  -0.20508
H    -2.27408  -1.68979  -1.04614
N    -1.90562  -0.45205   0.53998
C    -2.62028  -0.04580   1.56633
H    -2.21246   0.62530   2.29773
C    -3.90784  -0.62314   1.50536
C    -5.06474  -0.56117   2.29079
H    -5.08736   0.04255   3.18404
C    -6.15488  -1.28836   1.88362
H    -7.06366  -1.26210   2.46533
C    -6.12357  -2.07395   0.72008
H    -7.00869  -2.62658   0.44371
C    -5.00236  -2.15598  -0.07089
H    -4.97779  -2.75880  -0.96452
C    -3.88984  -1.42018   0.33276
O     0.26126  -1.59527  -0.33071
