56

Pd    0.00000   0.00000   0.00000
S     1.11562   0.94085   1.75917
S    -0.88774  -0.82315  -1.95123
O     0.44819  -6.29186  -0.12388
O     5.26308   4.26033  -2.27242
O    -3.46759   4.18258   3.63030
N     4.17168   2.78528  -3.62915
H     4.13446   2.44973  -4.58183
C     1.34128   0.91178  -1.15564
C     1.44064   0.60010  -2.51397
C     2.21370   1.86284  -0.62294
C     0.51576  -0.42964  -3.09740
H     1.02812  -1.37299  -3.29593
H     0.05790  -0.07645  -4.02350
C     2.11061   2.20555   0.83409
H     1.61405   3.16535   0.98798
H     3.09255   2.23746   1.30877
C    -0.46141  -2.48721  -1.45003
C    -0.27337   1.94654   2.26821
C     2.37954   1.23388  -3.31422
H     2.44298   0.98728  -4.36640
C     3.24408   2.18062  -2.77059
C     3.16239   2.49022  -1.41832
H     3.83272   3.21994  -0.99653
C     0.74995  -2.76110  -0.81182
H     1.49360  -1.97081  -0.64576
C     1.01709  -4.04614  -0.39554
H     1.94121  -4.28408   0.10684
C     0.08260  -5.07090  -0.58562
C    -1.12135  -4.78464  -1.22053
H    -1.86534  -5.54876  -1.37779
C    -1.38597  -3.49524  -1.65122
H    -2.32748  -3.26748  -2.12690
C    -0.46979  -7.35518  -0.22159
H    -1.39746  -7.13403   0.31475
H     0.01985  -8.20958   0.24282
H    -0.69855  -7.59355  -1.26548
C     5.09468   3.75161  -3.35676
C     5.90436   4.12859  -4.58290
H     6.60167   4.91810  -4.31881
H     5.24785   4.48074  -5.37621
H     6.46182   3.26614  -4.94357
C    -0.43876   2.22339   3.61815
H     0.27134   1.83750   4.33285
C    -1.51611   2.97260   4.03783
H    -1.66919   3.19180   5.08224
C    -2.44624   3.45629   3.11437
C    -2.27109   3.17739   1.75985
H    -2.97675   3.52816   1.02383
C    -1.19182   2.42068   1.33960
H    -1.07080   2.20268   0.26725
C    -4.46622   4.66196   2.76066
H    -4.05680   5.36485   2.02786
H    -5.18277   5.18142   3.39471
H    -4.97101   3.84284   2.23987
O    -1.11328  -0.75788   0.95327
