18

Hg    0.00000   0.00000   0.00000
Cl   -0.79001   1.35217  -1.72944
O    -0.87549  -1.37665  -3.06519
H    -0.98311  -0.39418  -2.97827
N     0.54792  -2.45062   0.55549
N    -0.39732  -1.76972  -1.86565
C     1.01367  -2.78287   1.74779
H     1.14085  -1.96829   2.44829
C     1.32429  -4.09106   2.09474
H     1.70101  -4.31580   3.07942
C     1.13896  -5.08880   1.15081
H     1.36963  -6.11793   1.38213
C     0.65132  -4.74329  -0.09836
H     0.49304  -5.49031  -0.86081
C     0.36307  -3.40553  -0.36589
C    -0.15235  -3.00036  -1.66568
H    -0.31232  -3.76220  -2.42588
O     0.43493   0.53945   1.49744
