58

C     1.02191  -0.30481   2.90314
H     1.17985   0.43696   3.68841
H     1.65209  -1.16356   3.14070
C     1.46096   0.27606   1.57825
C     2.01430  -0.48256   0.56567
C     2.20052  -1.98070   0.61813
H     3.02172  -2.22126   1.30210
H     2.50355  -2.31810  -0.37571
C     0.92482  -2.73584   1.03709
H     0.92320  -3.71674   0.55668
H     0.92354  -2.90882   2.11442
C    -0.33983  -1.99007   0.65378
C    -0.97835  -1.07742   1.52255
C    -0.46232  -0.71720   2.89878
H    -0.62025  -1.56038   3.58099
H    -1.06155   0.11479   3.27519
C    -1.59625   0.15690  -1.24873
C    -2.68859   1.03478  -1.34132
C    -3.22364   2.06813  -0.37504
C    -2.29674   2.23748   0.82992
H    -2.36038   1.36247   1.46660
H    -2.61039   3.11185   1.39605
H    -1.26469   2.36738   0.51570
C    -4.61268   1.64344   0.12610
H    -5.34423   1.67102  -0.67483
H    -4.93607   2.33058   0.90261
H    -4.56457   0.63840   0.53640
C    -2.23191   3.97862  -1.45002
H    -1.81238   4.54830  -0.61696
H    -2.51959   4.66852  -2.24277
H    -1.46985   3.29029  -1.82358
C    -4.36399   1.48749  -3.18401
H    -4.19044   1.51170  -4.25851
H    -4.46668   2.49650  -2.78975
H    -5.27349   0.91630  -2.98834
C    -0.66504  -1.40607  -2.97571
H    -1.20806  -2.12637  -3.59083
H    -0.19350  -1.90468  -2.12712
C     0.40366  -0.68048  -3.79867
H     0.77122   0.15996  -3.20625
H    -0.05013  -0.28362  -4.70876
C     1.57781  -1.58848  -4.15195
H     2.34263  -0.98116  -4.63919
H     2.01113  -1.98750  -3.23273
C     1.19353  -2.73825  -5.07633
H     0.51960  -3.43280  -4.58102
H     2.08029  -3.28919  -5.38116
H     0.70369  -2.35945  -5.97070
N    -3.23561   0.84857  -2.56670
N    -2.59269  -0.06101  -3.24477
N    -1.62275  -0.46603  -2.45774
O    -3.41633   3.30426  -1.06608
Ir    0.00000   0.00000   0.00000
H     1.69193   1.33808   1.59630
H     2.67356   0.01536  -0.14156
H    -0.99789  -2.55833  -0.00229
H    -2.06650  -1.03895   1.46306
O     0.56013   1.28103  -0.87619
