34

Pd    0.00000   0.00000   0.00000
N    -1.24815  -0.86374  -1.73070
N     1.21835  -1.83868  -0.74079
N     0.03028  -4.63923  -2.79131
N    -1.07385  -4.21543  -3.21180
C    -0.80236  -2.09446  -2.05025
C     0.44861  -2.58327  -1.55804
C     2.34725  -2.35893  -0.31297
H     2.94840  -1.73463   0.33794
C     2.78564  -3.64710  -0.64882
H     3.71831  -4.00926  -0.24617
C     2.01787  -4.42596  -1.47715
H     2.29730  -5.42689  -1.76490
C     0.81060  -3.89056  -1.96115
C    -1.54205  -2.98266  -2.86656
C    -2.80386  -2.56717  -3.32929
H    -3.38378  -3.24108  -3.93934
C    -3.24540  -1.31858  -2.97123
H    -4.20985  -0.95437  -3.28791
C    -2.42963  -0.49934  -2.17904
H    -2.76689   0.49097  -1.89660
C     1.11113   1.21659  -1.23120
H     0.68724   1.13622  -2.23847
H     2.13740   0.83470  -1.25091
H     1.13904   2.26916  -0.94982
C    -1.20251   1.61785   0.36988
H    -2.08922   1.24237   0.89145
H    -1.49627   2.05485  -0.59107
H    -0.73418   2.39370   0.97785
C     1.16982   0.56760   1.58013
H     1.83381   1.40866   1.37228
H     1.76405  -0.32183   1.82719
H     0.53684   0.81029   2.43827
O    -0.82372  -1.08533   0.93061
