49

Ru    0.00000   0.00000   0.00000
Cl    1.59253   0.00526   1.80208
N     0.00007  -1.89331  -0.00004
N    -1.69101  -0.34053   1.32264
N     0.00015   1.86892  -0.00029
C    -1.07405  -2.55007   0.44841
C    -1.10319  -3.93316   0.47243
H    -1.97228  -4.45294   0.84400
C     0.00029  -4.63371   0.00025
H     0.00038  -5.71218   0.00038
C    -2.20727  -1.63655   0.83141
H    -2.87025  -2.10130   1.57392
H    -2.77897  -1.43744  -0.08425
C    -2.73535   0.67805   1.22302
H    -2.99793   0.82883   0.17550
H    -2.35787   1.61745   1.62792
H    -3.62965   0.38109   1.78517
C    -1.30944  -0.49038   2.72659
H    -0.85704   0.43316   3.08618
H    -0.57561  -1.28942   2.83296
H    -2.18807  -0.72485   3.34188
C     0.00056   3.02946  -0.00023
C     0.00046   4.43190  -0.00014
C    -0.41718   5.13589   1.13579
H    -0.73524   4.58978   2.01143
C    -0.41474   6.51559   1.12744
H    -0.73880   7.05647   2.00439
C     0.00014   7.20911   0.00011
H     0.00006   8.28873   0.00022
C     1.10366  -3.93309  -0.47208
C     1.07431  -2.55000  -0.44835
C     2.20748  -1.63646  -0.83137
N     1.69116  -0.34042  -1.32246
C     0.41518   6.51588  -1.12733
C     0.41791   5.13617  -1.13596
H     0.73609   4.59032  -2.01170
H     0.73928   7.05698  -2.00413
C     2.73552   0.67813  -1.22278
H     2.99815   0.82876  -0.17526
H     2.35803   1.61758  -1.62754
H     3.62980   0.38125  -1.78502
C     1.30968  -0.49018  -2.72644
H     0.85728   0.43337  -3.08596
H     0.57588  -1.28923  -2.83289
H     2.18834  -0.72457  -3.34174
H     2.87044  -2.10121  -1.57394
H     2.77922  -1.43739   0.08427
H     1.97285  -4.45282  -0.84351
O    -1.09225   0.00388  -1.23672
