46

Ti    0.00000   0.00000   0.00000
Cl    1.00859  -1.45785   1.44415
Cl   -1.26016   0.86432  -1.68702
O    -0.55405   1.05548   1.22576
N     0.20707  -1.58614  -1.30568
N    -1.72749  -1.12384   0.46455
C     1.20520  -1.79866  -2.13433
H     2.05472  -1.12571  -2.05707
C     1.19800  -2.83213  -3.08439
H     2.04963  -2.95926  -3.73347
C     0.10436  -3.65016  -3.17630
H     0.05530  -4.44571  -3.90546
C    -0.98522  -3.44600  -2.30363
C    -0.87781  -2.39377  -1.35835
C    -2.16484  -4.21699  -2.34271
H    -2.24415  -5.01276  -3.06739
C    -3.19598  -3.93841  -1.48665
H    -4.10907  -4.51223  -1.53474
C    -3.09309  -2.91523  -0.53821
H    -3.94008  -2.71316   0.09936
C    -1.94207  -2.15411  -0.43660
C    -2.40623  -1.00053   1.55811
H    -3.14998  -1.75719   1.82822
C    -2.25184   0.06107   2.49633
C    -3.05577   0.09250   3.64971
H    -3.78213  -0.69186   3.80521
C    -2.91571   1.10660   4.55967
H    -3.53463   1.13532   5.44317
C    -1.96321   2.10847   4.35802
H    -1.87979   2.88010   5.10554
C    -1.13898   2.13153   3.25054
C    -1.28840   1.09479   2.29136
C    -0.06372   3.18628   3.02612
C     1.30897   2.49306   3.01097
H     1.47702   1.96865   3.95021
H     2.09345   3.23538   2.88238
H     1.38915   1.77150   2.19509
C    -0.30801   3.90485   1.68914
H    -0.22047   3.22335   0.84124
H     0.42753   4.69577   1.56068
H    -1.30146   4.35027   1.67552
C    -0.05282   4.24218   4.13664
H    -1.00172   4.77137   4.18586
H     0.72665   4.97095   3.92768
H     0.16091   3.79457   5.10443
O     1.39150   0.76482  -0.44865
