15

Pd    0.00000   0.00000   0.00000
C     2.09402   1.20747   1.80029
C     3.08867   1.78001   2.64779
N     1.29259   0.74602   1.11682
H     2.61048   2.41672   3.39257
H     3.63879   0.98580   3.15305
H     3.77561   2.37706   2.04765
Br   -0.59663  -1.60282   1.75066
C    -2.09243  -1.20778  -1.80194
C    -3.08723  -1.78031  -2.64927
N    -1.29021  -0.74562  -1.11989
H    -2.60914  -2.41706  -3.39408
H    -3.63739  -0.98610  -3.15451
H    -3.77412  -2.37732  -2.04903
O     0.40313   1.07976  -1.18072
