40

Ru    0.00000   0.00000   0.00000
N    -0.26990   2.63224  -1.64069
N    -1.46313   1.11002  -2.56021
N    -2.09343  -2.00640   1.14808
N    -2.95414  -1.09603  -0.59038
C     0.97910  -1.05491   1.17781
O     1.78489  -1.58603   1.79627
C     1.68953   0.74793  -0.14773
O     2.78578   1.07976  -0.19132
C    -0.55349   1.24068   1.51633
O     0.21172   1.52690   2.40955
C    -1.97843   1.81200   1.57010
H    -2.66702   1.02130   1.86879
H    -2.29359   2.19747   0.60186
H    -2.02309   2.60839   2.31354
C    -0.71297   1.36281  -1.45911
C     0.54477   3.42458  -0.75529
H     0.51302   3.02245   0.25673
H     0.16643   4.44770  -0.74156
H     1.58228   3.44128  -1.09678
C    -0.72159   3.14211  -2.82932
H    -0.46957   4.12814  -3.16076
C    -1.47953   2.18539  -3.40636
H    -2.01056   2.17836  -4.33548
C    -2.27291  -0.06147  -2.76544
H    -1.64542  -0.95855  -2.79372
H    -2.76624   0.04240  -3.73310
C    -3.32398  -0.19578  -1.65665
H    -3.53116   0.79685  -1.23526
H    -4.25153  -0.58157  -2.08488
C    -1.86179  -1.04184   0.22215
C    -1.29372  -2.34081   2.29830
H    -0.48571  -3.02463   2.02835
H    -1.92915  -2.83236   3.03479
H    -0.87216  -1.43896   2.74609
C    -3.27166  -2.65701   0.90271
H    -3.62087  -3.46297   1.51408
C    -3.81584  -2.08440  -0.18965
H    -4.72872  -2.29669  -0.70614
O     0.43639  -1.10582  -1.14421
