21

Pt    0.00000   0.00000   0.00000
Cl   -0.30454   2.16578   0.37444
N     0.31322  -1.94629  -0.19761
H     0.18043  -2.46959  -1.05831
N     0.59296  -0.47323   1.86291
N     0.87214  -1.79187   1.97215
C     0.71884  -2.58004   0.84776
C     1.03144  -4.04207   0.95969
H     0.37508  -4.48035   1.71820
H     2.06075  -4.15034   1.31517
C     0.86303  -4.79026  -0.35794
H    -0.16473  -4.73338  -0.70926
H     1.11213  -5.83819  -0.21499
H     1.52461  -4.38668  -1.12126
C     1.26644  -2.08159   3.24344
H     1.53565  -3.07136   3.54785
C     1.23311  -0.90706   3.95030
H     1.48118  -0.76508   4.98129
C     0.80461   0.07494   3.04292
H     0.64616   1.12494   3.19211
O    -0.45927   0.17020  -1.57563
