39

Pt    0.00000   0.00000   0.00000
Cl    1.55760   0.98837  -1.41146
N     0.78558  -1.74351  -0.42301
H     1.76745  -1.91931  -0.17643
N     1.01865  -3.80464  -1.40531
N     2.26198  -3.89849  -0.89821
N    -0.76115   1.75990   0.39524
H    -1.55333   2.11648  -0.15358
N    -1.01081   3.78388   1.45514
N    -2.03020   4.09578   0.63418
C     0.25549  -2.69038  -1.09820
C    -1.15783  -2.59708  -1.57562
H    -1.75670  -2.23773  -0.73315
H    -1.53732  -3.56906  -1.88537
C    -1.26925  -1.58283  -2.71876
H    -0.91796  -0.60504  -2.37693
H    -2.30573  -1.48881  -3.02901
H    -0.67071  -1.88822  -3.57430
C     2.76186  -5.01911  -1.34957
H     3.75336  -5.32030  -1.07690
C     1.83788  -5.68745  -2.18131
H     1.97592  -6.61890  -2.68957
C     0.73412  -4.88229  -2.19373
H    -0.19760  -4.99478  -2.70682
C    -0.36976   2.56794   1.30292
C     0.79656   2.24948   2.18216
H     0.94616   1.16356   2.14548
H     0.58859   2.53932   3.21339
C     2.06008   2.94473   1.66438
H     2.27281   2.60681   0.65279
H     2.90428   2.69160   2.29943
H     1.94277   4.02612   1.65357
C    -2.44391   5.28239   0.99604
H    -3.25956   5.75241   0.48425
C    -1.68718   5.77481   2.08132
H    -1.80328   6.71380   2.58112
C    -0.77969   4.78914   2.34912
H    -0.01092   4.73437   3.09085
O    -1.07911  -0.67784   1.04812
