33

Hg    0.00000   0.00000   0.00000
Cl   -2.05741  -0.96681   0.02277
N    -0.49435   2.49929   0.05389
N     0.42076   1.02227  -2.09881
N     0.81137   2.82392  -3.32636
H     0.87831   3.79165  -3.59403
C    -0.12672   3.15101  -1.03355
C    -0.20096   4.55968  -1.12781
H     0.10115   5.06622  -2.03118
C    -0.66250   5.27492  -0.05828
H    -0.73026   6.35282  -0.09905
C    -1.05408   4.60084   1.11468
C    -0.94964   3.17971   1.12127
C    -1.53429   5.25973   2.26352
H    -1.60940   6.33737   2.25097
C    -1.89444   4.54209   3.37015
H    -2.26071   5.04878   4.25029
C    -1.79217   3.13971   3.37666
H    -2.08192   2.59426   4.26174
C    -1.33186   2.46946   2.27870
H    -1.24772   1.38813   2.26544
C     0.36183   2.33784  -2.13605
C     0.93018   0.61472  -3.29891
C     1.18645   1.75342  -4.09553
C     1.19943  -0.66408  -3.77947
H     1.00059  -1.52941  -3.16523
C     1.72201  -0.76252  -5.04949
H     1.94604  -1.73563  -5.45869
C     1.97454   0.37040  -5.83211
H     2.38607   0.23974  -6.82130
C     1.71326   1.64520  -5.37432
H     1.91015   2.51604  -5.98030
O     1.47000   0.14262   0.73570
