68

Pd    0.00000   0.00000   0.00000
Cl    1.28467  -0.78913  -1.70399
P    -1.30896  -1.76907  -0.46159
P    -1.20146   0.93569   1.62442
O    -0.45000  -2.22386   1.93195
H     0.41058  -2.63049   2.10879
N    -3.03863  -1.15121   1.76636
C    -0.73107  -3.49405  -0.52643
C     0.63115  -3.74510  -0.39660
H     1.30922  -2.90760  -0.28272
C     1.11022  -5.04145  -0.44646
H     2.17017  -5.22709  -0.35403
C     0.23287  -6.09926  -0.62112
H     0.60525  -7.11209  -0.66505
C    -1.12529  -5.85618  -0.74142
H    -1.81208  -6.67935  -0.87732
C    -1.60992  -4.56057  -0.69282
H    -2.67353  -4.38811  -0.78758
C    -1.95257  -1.44797  -2.13903
C    -2.26231  -2.41572  -3.08620
H    -2.12536  -3.46263  -2.86117
C    -2.71673  -2.03847  -4.33874
H    -2.94692  -2.79700  -5.07271
C    -2.86372  -0.70004  -4.65840
H    -3.21199  -0.41293  -5.63941
C    -2.53977   0.27285  -3.72527
H    -2.62957   1.31882  -3.97966
C    -2.08200  -0.10088  -2.47730
H    -1.78480   0.66078  -1.74734
C    -2.92384  -1.86718   0.52383
H    -3.71348  -1.49144  -0.14059
H    -3.12643  -2.91880   0.74233
C    -2.54078  -1.75286   2.94458
C    -3.34912  -1.77269   4.07429
H    -4.33030  -1.32711   4.01205
C    -2.91331  -2.35031   5.25225
H    -3.55484  -2.35328   6.11957
C    -1.65927  -2.93186   5.31153
H    -1.31291  -3.39114   6.22418
C    -0.83811  -2.91789   4.19880
H     0.15229  -3.34987   4.24455
C    -1.26327  -2.31930   3.02284
C    -2.95903   0.28635   1.73238
H    -3.45296   0.69327   2.62164
H    -3.49114   0.65056   0.84417
C    -1.50251   2.72007   1.49742
C    -1.62634   3.23025   0.20728
H    -1.48852   2.56384  -0.64136
C    -1.86173   4.57600   0.00912
H    -1.94640   4.96970  -0.99296
C    -1.96860   5.42458   1.10050
H    -2.14330   6.47943   0.94840
C    -1.82855   4.92453   2.38369
H    -1.89073   5.59001   3.23256
C    -1.59540   3.57512   2.58775
H    -1.45905   3.19687   3.59005
C    -0.50231   0.62280   3.27091
C    -1.19876   0.78882   4.46432
H    -2.21850   1.14745   4.46078
C    -0.59178   0.47680   5.66705
H    -1.13654   0.60596   6.59077
C     0.70742  -0.00276   5.69051
H     1.17477  -0.24520   6.63340
C     1.40401  -0.17534   4.50551
H     2.41715  -0.55001   4.52363
C     0.80227   0.13314   3.29939
H     1.34013   0.00027   2.35823
O     0.97663   1.30426   0.25999
