45

Zr    0.00000   0.00000   0.00000
Cl    1.70803   1.23878   1.01077
O    -1.43700  -1.23656  -1.03063
C    -2.34954  -2.17821  -0.45695
H    -2.36264  -1.99977   0.62449
H    -2.00204  -3.20036  -0.67056
C    -3.66961  -1.89813  -1.16534
H    -4.12524  -0.99308  -0.76122
H    -4.37639  -2.71998  -1.08298
C    -3.19401  -1.66350  -2.59967
H    -3.10373  -2.61385  -3.12642
H    -3.86766  -1.02053  -3.16018
C    -1.81559  -1.01501  -2.40775
H    -1.05333  -1.46070  -3.05951
H    -1.83838   0.07198  -2.55962
N     1.29540  -0.47031  -1.66128
C     1.73364   0.13292  -2.77084
H     1.13167   0.87546  -3.27239
C     3.00045  -0.33712  -3.13311
H     3.57254  -0.02486  -3.98527
C     3.36767  -1.26897  -2.17612
H     4.28095  -1.83064  -2.12700
C     2.30261  -1.33710  -1.26215
C     2.10204  -2.03952  -0.05738
H     2.90057  -2.66185   0.36009
N     0.95023  -1.91673   0.52219
C     0.68166  -2.43363   1.83867
H     1.57597  -2.85775   2.31770
H    -0.08983  -3.21221   1.76061
C     0.12982  -1.24335   2.64579
H    -0.32499  -1.59556   3.58578
H     0.97724  -0.57556   2.88735
N    -0.85257  -0.58244   1.79943
C    -1.31745   0.65130   2.18890
C    -0.91287   1.37376   3.32883
H    -0.18641   0.95511   4.00958
C    -1.43266   2.62741   3.58600
H    -1.09329   3.16686   4.45873
C    -2.37412   3.20111   2.74685
H    -2.76420   4.18508   2.95524
C    -2.81934   2.49014   1.64156
H    -3.56879   2.91692   0.99019
C    -2.31515   1.23522   1.36724
H    -2.70870   0.65636   0.52755
O    -0.56585   1.28375  -0.86850
