35

Co    0.00000   0.00000   0.00000
O    -0.75441   2.60180  -1.14778
O     0.48618   2.48543   1.05926
O    -1.79348  -0.00030   1.16671
N    -0.79290   1.26036  -1.26278
N     0.75701   1.23207   1.15763
C    -1.32069   0.72685  -2.30786
C     1.53231   0.71939   2.06356
C    -1.89685   1.50591  -3.44141
C     2.28483   1.54462   3.05421
H    -0.22896   2.75786  -0.26865
H    -1.87604  -0.78245   1.72393
H    -1.79803   2.56854  -3.23654
H    -2.94867   1.26032  -3.57833
H    -1.36716   1.26874  -4.36229
H     3.35140   1.34415   2.97159
H     2.09935   2.59605   2.84635
H     1.96973   1.31543   4.07163
H    -1.87613   0.78178   1.72404
C    -1.32026  -0.72712  -2.30805
N    -0.79224  -1.26058  -1.26307
C     1.53246  -0.71960   2.06343
N     0.75740  -1.23223   1.15727
O     0.48683  -2.48567   1.05873
C     2.28487  -1.54494   3.05411
H     3.35142  -1.34444   2.97168
H     2.09950  -2.59638   2.84621
H     1.96966  -1.31590   4.07150
O    -0.75414  -2.60208  -1.14799
H    -0.23014  -2.75836  -0.26803
C    -1.89670  -1.50626  -3.44139
H    -1.79780  -2.56888  -3.23659
H    -2.94855  -1.26081  -3.57813
H    -1.36728  -1.26904  -4.36236
O     1.39361  -0.00155  -0.88338
