54

Cd    0.00000   0.00000   0.00000
Br    0.77747   1.50419  -1.86754
N    -0.37854   1.95585   1.57583
C    -0.90836   3.07274   1.03424
H    -0.61159   3.28330   0.01458
C    -1.76282   3.89931   1.70844
H    -2.16992   4.77715   1.23003
C    -2.11598   3.59644   3.04018
C    -3.01712   4.36516   3.80445
H    -3.47264   5.23471   3.35346
C    -3.29835   4.01213   5.09478
H    -3.98688   4.60302   5.68091
C    -2.69569   2.88478   5.67895
H    -2.93189   2.63300   6.70214
C    -1.82189   2.11619   4.96251
H    -1.35393   1.24606   5.39759
C    -1.51776   2.45241   3.62757
C    -0.65703   1.67575   2.82497
H    -0.19174   0.79160   3.24509
N    -2.49020   0.48168  -0.05455
C    -2.80881   1.32201  -1.00867
H    -2.25374   1.23307  -1.93476
C    -3.79673   2.31119  -0.87853
H    -4.00207   2.96837  -1.70856
C    -4.45954   2.42970   0.31245
H    -5.20993   3.19225   0.46734
C    -4.16015   1.53373   1.35828
C    -4.79571   1.57765   2.61573
H    -5.54139   2.33921   2.79206
C    -4.47365   0.67145   3.58650
H    -4.96227   0.70933   4.54833
C    -3.50830  -0.31862   3.34171
H    -3.27394  -1.03263   4.11634
C    -2.86331  -0.38230   2.13784
H    -2.11988  -1.14164   1.94184
C    -3.16383   0.54692   1.12015
N    -0.50062  -1.91897  -1.47333
C    -0.74017  -3.13577  -0.93856
H    -0.94282  -3.15194   0.12443
C    -0.72090  -4.29182  -1.66768
H    -0.91460  -5.24209  -1.19410
C    -0.43186  -4.24083  -3.04720
C    -0.36961  -5.37855  -3.87732
H    -0.55586  -6.35081  -3.44514
C    -0.07244  -5.24357  -5.20485
H    -0.02182  -6.11559  -5.84017
C     0.17352  -3.97632  -5.76217
H     0.40976  -3.90019  -6.81300
C     0.11801  -2.85379  -4.98502
H     0.30986  -1.87552  -5.40008
C    -0.18551  -2.96215  -3.61177
C    -0.24249  -1.84305  -2.75661
H    -0.05473  -0.85682  -3.16585
O     0.57943  -0.96000   1.21044
