25

Zn    0.00000   0.00000   0.00000
I    -2.27710  -1.07032   0.25746
S    -0.55913   2.49870   1.20528
N     1.04651  -1.98670   0.53415
N     1.41769   0.34789   1.72074
N     1.80318   1.62213   2.00554
H     2.79524   1.78917   2.16254
N     1.58422   3.89917   1.75577
H     2.58498   4.01619   1.75972
H     1.03628   4.67027   1.41061
N     3.16086  -0.51796   3.02027
H     3.19141   0.26700   3.65068
H     3.60843  -1.35441   3.35155
C     0.71764  -3.14238  -0.01257
H     0.17492  -3.09013  -0.94629
C     1.03535  -4.36460   0.56052
H     0.75232  -5.28334   0.07417
C     1.70115  -4.36633   1.77505
H     1.94148  -5.29373   2.27253
C     2.05289  -3.15620   2.34933
H     2.54744  -3.13905   3.30885
C     1.71932  -1.97758   1.68539
C     2.08503  -0.64722   2.18885
C     1.02301   2.67512   1.63650
O     1.05782   0.52641  -1.15170
