53

Re    0.00000   0.00000   0.00000
P    -0.76198  -1.71878   1.44883
O    -1.25398   1.00880   0.40017
O     1.37428  -0.96554  -0.58415
O     2.66231   0.49129   3.22570
N     1.30965   0.73572   1.43070
N     1.01157   1.83740  -1.20038
H     1.65011   1.45655  -1.89415
H     0.33647   2.43519  -1.66753
C     2.35856   1.52329   0.81063
H     3.04519   0.86758   0.25390
H     2.93878   2.02240   1.59436
C     1.73518   2.54479  -0.13957
H     1.00864   3.13945   0.41827
H     2.51196   3.20548  -0.54560
C     1.57454   0.32252   2.67202
C     2.05004  -1.77553  -1.44594
H     2.46453  -2.64618  -0.91823
H     2.88359  -1.23317  -1.91737
H     1.36392  -2.12623  -2.23286
C    -0.56154  -1.13820   3.14780
C     0.46104  -0.25789   3.51929
C     0.53276   0.12872   4.85769
H     1.33766   0.78863   5.14561
C    -0.37734  -0.31619   5.79640
H    -0.29880   0.01365   6.82152
C    -1.38518  -1.18814   5.41856
H    -2.09943  -1.54914   6.14343
C    -1.47029  -1.59619   4.10184
H    -2.25286  -2.27786   3.79892
C    -2.48957  -2.22402   1.25848
C    -2.89995  -3.53038   1.51101
H    -2.17932  -4.27669   1.81729
C    -4.23305  -3.86871   1.36237
H    -4.55301  -4.88231   1.55463
C    -5.15323  -2.91337   0.96180
H    -6.19096  -3.18623   0.83938
C    -4.74411  -1.61299   0.71124
H    -5.46175  -0.87264   0.39236
C    -3.41460  -1.26353   0.85982
H    -3.07071  -0.25810   0.65199
C     0.21873  -3.22142   1.25461
C     0.03014  -3.96098   0.08725
H    -0.70081  -3.62670  -0.63814
C     0.79176  -5.09277  -0.13461
H     0.64956  -5.66904  -1.03678
C     1.74386  -5.48206   0.79685
H     2.33967  -6.36547   0.62022
C     1.94025  -4.73698   1.94847
H     2.68952  -5.03703   2.66596
C     1.18132  -3.60233   2.18199
H     1.33503  -3.01233   3.07475
O    -0.83110  -0.66281  -1.26193
