36

Zn    0.00000   0.00000   0.00000
N    -1.82495  -1.18948  -0.04656
S     0.49761   0.86575  -2.08346
C    -1.82186  -2.45855   0.34502
N    -1.10369   1.96980   0.38138
C    -2.93749  -3.27024   0.26179
C    -4.10696  -2.73065  -0.25184
C    -4.10951  -1.40538  -0.64897
C    -2.94419  -0.65458  -0.53326
C    -2.89516   0.78887  -0.92206
C    -2.54128   1.68987   0.27386
C    -0.82819   2.51263   1.71290
C    -0.68669   2.92005  -0.66527
C     0.62237   2.56686  -1.39322
C     1.84453   2.66958  -0.48827
C     0.78239   3.52061  -2.57605
H    -0.89134  -2.83119   0.75016
H    -2.88882  -4.29498   0.59176
H    -5.00159  -3.32918  -0.33439
H    -5.00357  -0.94932  -1.04467
H    -3.85904   1.08614  -1.33478
H    -2.13476   0.90505  -1.70014
H    -3.09769   2.63548   0.19903
H    -2.85440   1.19380   1.19680
H    -1.43473   3.40477   1.91144
H     0.22239   2.77858   1.79745
H    -1.04824   1.76213   2.47101
H    -0.58495   3.92448  -0.23489
H    -1.46591   2.96858  -1.42983
H     1.94241   3.68154  -0.09434
H     2.74040   2.43251  -1.05850
H     1.79041   1.97051   0.34715
H     0.83166   4.55222  -2.23005
H    -0.05194   3.41759  -3.26657
H     1.69593   3.28648  -3.11628
O     0.56066  -0.47379   1.47773
