53

Re    0.00000   0.00000   0.00000
P     1.17543  -1.14339  -1.79439
O     1.60285  -1.39831   1.02862
O     5.85892  -1.52559   1.06819
H     6.43461  -0.91000   0.60385
N     3.32345  -2.74817   1.47461
H     3.92314  -3.48685   1.14185
C     1.28969  -2.94194  -1.48832
C     0.84681  -3.86304  -2.42910
H     0.43249  -3.51617  -3.36422
C     0.90830  -5.21970  -2.16351
H     0.54664  -5.92286  -2.89814
C     1.41456  -5.67380  -0.95753
H     1.44886  -6.73144  -0.74560
C     1.86397  -4.76834  -0.01290
H     2.22706  -5.11788   0.94292
C     1.80380  -3.40353  -0.26779
C     2.22293  -2.42927   0.77209
C     3.91080  -1.80884   2.40384
H     4.50178  -2.36768   3.13036
H     3.10417  -1.27336   2.90806
C     4.80699  -0.80523   1.67491
H     4.21788  -0.26866   0.91818
H     5.19336  -0.07683   2.39901
C     2.92943  -0.68425  -2.00873
C     3.99496  -1.57244  -1.92759
H     3.81991  -2.62902  -1.77494
C     5.29288  -1.10670  -2.05584
H     6.11612  -1.80335  -1.99136
C     5.53326   0.24089  -2.26455
H     6.54771   0.60014  -2.35917
C     4.47228   1.12941  -2.35978
H     4.65711   2.17957  -2.52839
C     3.17696   0.66912  -2.23031
H     2.33746   1.35151  -2.29704
C     0.55784  -1.05151  -3.50046
C     1.40497  -1.21949  -4.59268
H     2.45847  -1.40948  -4.43711
C     0.89538  -1.14064  -5.87500
H     1.55412  -1.26936  -6.72151
C    -0.45460  -0.89673  -6.07559
H    -0.84593  -0.83493  -7.08016
C    -1.29933  -0.73040  -4.99088
H    -2.35065  -0.53995  -5.14383
C    -0.79583  -0.80384  -3.70483
H    -1.45603  -0.67568  -2.85739
C    -0.87903   0.41181   1.69734
O    -1.38199   0.54074   2.71316
C    -1.13106   1.22701  -0.98978
O    -1.79683   1.93241  -1.60748
C     1.36677   1.34212   0.28878
O     2.20324   2.09468   0.51910
O    -0.99603  -1.31175  -0.09864
