70

Co    0.00000   0.00000   0.00000
O    -0.68049   2.11612  -1.93251
O    -0.44620  -2.87656  -0.48717
O     0.60818  -2.06884   1.67212
O     0.38548   2.68946   0.28690
N    -0.69347   0.79763  -1.65492
N    -0.55422  -1.62213  -0.96922
N     0.48729  -0.79323   1.59796
N     0.40248   1.56561   0.90685
N     1.80196  -0.11442  -0.67402
N     4.33147  -0.33756  -1.81629
C    -1.25328  -0.02136  -2.48072
C    -1.18212  -1.41989  -2.07855
C    -1.82504  -2.48026  -2.86882
C     0.82922   2.54135   3.10388
C    -1.92026   0.38620  -3.72593
C    -1.61138  -0.24175  -4.93031
H    -0.85983  -1.01729  -4.95627
C    -2.25415   0.13954  -6.09265
H    -2.00873  -0.34852  -7.02408
C    -3.21196   1.14021  -6.06317
H    -3.71715   1.43034  -6.97235
C    -3.51790   1.76994  -4.86819
H    -4.26270   2.55099  -4.84257
C    -2.87205   1.40227  -3.70272
H    -3.11346   1.88546  -2.76875
C    -1.11460  -3.62252  -3.22647
H    -0.08265  -3.72857  -2.92748
C    -1.72565  -4.61145  -3.97487
H    -1.16667  -5.49128  -4.25651
C    -3.04891  -4.47583  -4.35957
H    -3.52433  -5.25084  -4.94208
C    -3.76489  -3.34908  -3.98868
H    -4.80036  -3.24645  -4.27632
C    -3.15871  -2.35126  -3.24978
H    -3.72047  -1.48131  -2.94589
C     0.71930   0.03086   2.57656
C     0.65035   1.41851   2.17514
C     1.09421  -0.41519   3.92493
C     0.38165  -1.44228   4.53759
H    -0.44364  -1.90104   4.01554
C     0.72278  -1.85941   5.81048
H     0.16034  -2.65120   6.28262
C     1.77968  -1.26445   6.47876
H     2.04444  -1.59130   7.47355
C     2.50191  -0.25302   5.86645
H     3.33260   0.20718   6.38110
C     2.16517   0.17194   4.59549
H     2.73651   0.95357   4.11678
C     0.19015   2.51986   4.34267
H    -0.43901   1.68303   4.60440
C     0.34516   3.57555   5.21963
H    -0.15495   3.55301   6.17653
C     1.13508   4.66058   4.87436
H     1.25577   5.48326   5.56368
C     1.76009   4.69265   3.63959
H     2.36933   5.54049   3.36262
C     1.60670   3.64160   2.75420
H     2.09189   3.67055   1.79066
C     2.50507  -1.24957  -0.60528
H     2.07380  -2.08608  -0.07171
C     3.76380  -1.34799  -1.17986
H     4.32876  -2.26735  -1.12674
C     3.64369   0.79067  -1.86381
H     4.11045   1.62289  -2.37057
C     2.38331   0.91523  -1.29805
H     1.85112   1.85578  -1.33765
H    -0.29799   2.54553  -1.06565
H    -0.06028  -2.74200   0.46454
O    -1.53729   0.09998   0.59098
