37

Ir    0.00000   0.00000   0.00000
N     0.73210   1.91743  -2.22187
N     2.40988   1.62593  -0.90979
C     1.11227   1.28464  -1.08906
C     1.77287   2.64317  -2.73861
C     2.82738   2.45865  -1.91257
C    -0.55208   1.78319  -2.85210
C     3.25322   1.10515   0.13171
C    -1.27486   1.51981   0.77302
C    -0.14126   1.38155   1.59315
C    -0.13786   0.69074   2.93643
C    -0.81009  -0.69395   2.90923
C    -0.70361  -1.35833   1.55601
C    -1.67061  -1.24443   0.57617
C    -2.92210  -0.40738   0.69528
C    -2.64941   1.03014   1.17553
H     1.68071   3.21478  -3.63865
H     3.82530   2.84293  -1.96115
H    -1.16168   1.10406  -2.25444
H    -0.43642   1.36533  -3.85356
H    -1.05006   2.75194  -2.92450
H     4.26739   1.47437  -0.00561
H     3.26028   0.01438   0.08928
H     2.88848   1.41112   1.11305
H    -1.29389   2.39280   0.12263
H     0.60030   2.17913   1.53316
H    -0.62670   1.33189   3.67940
H     0.90231   0.57370   3.25230
H    -0.33401  -1.33142   3.65727
H    -1.86297  -0.60946   3.18413
H    -0.06148  -2.23611   1.53422
H    -1.76720  -2.05611  -0.14288
H    -3.62672  -0.90333   1.37217
H    -3.39876  -0.36969  -0.28774
H    -3.40496   1.69271   0.74700
H    -2.74890   1.09345   2.26070
O     0.66551  -1.17358  -0.94990
