70

Ti    0.00000   0.00000   0.00000
Br    0.39770  -1.34153   2.12212
P     2.28819  -2.78965  -2.40476
O     1.40364  -1.05998  -0.75125
N    -0.31656   1.52012   0.97711
N    -1.63826  -0.76344  -0.39916
C     3.37036  -1.55573  -1.76453
H     4.40003  -1.44454  -2.05144
C     2.63573  -0.72760  -0.95582
C     3.20162   0.49079  -0.32569
C     3.71289   1.50576  -1.13178
H     3.67139   1.40385  -2.20626
C     4.22852   2.65144  -0.55329
H     4.60619   3.44317  -1.18246
C     4.25821   2.78391   0.82595
H     4.66499   3.67864   1.27337
C     3.76662   1.76913   1.63022
H     3.79843   1.86314   2.70565
C     3.22890   0.62592   1.06174
H     2.87499  -0.17525   1.69902
C     3.26144  -3.85255  -3.50255
C     2.84882  -4.18987  -4.78453
H     1.92705  -3.78521  -5.17871
C     3.62690  -5.03600  -5.55565
H     3.30910  -5.29507  -6.55457
C     4.80888  -5.55012  -5.04872
H     5.41282  -6.20926  -5.65395
C     5.21689  -5.22277  -3.76483
H     6.13603  -5.62806  -3.36898
C     4.44349  -4.37845  -2.99104
H     4.74626  -4.12050  -1.98498
C     1.60388  -3.94275  -1.18580
C     0.76699  -4.95797  -1.64416
H     0.56388  -5.04806  -2.70387
C     0.20403  -5.83895  -0.74019
H    -0.45245  -6.62199  -1.09031
C     0.47470  -5.70997   0.61439
H     0.01720  -6.38706   1.31960
C     1.32930  -4.71812   1.06609
H     1.53172  -4.60605   2.11928
C     1.90469  -3.83827   0.16564
H     2.57107  -3.06239   0.51581
C     0.96580  -2.05551  -3.39720
C    -0.38183  -2.22945  -3.11071
H    -0.68256  -2.86312  -2.28851
C    -1.32796  -1.58517  -3.88899
H    -2.37802  -1.71421  -3.67040
C    -0.93402  -0.76740  -4.93495
H    -1.67642  -0.25181  -5.52411
C     0.41159  -0.58984  -5.21436
H     0.71663   0.06405  -6.01604
C     1.36401  -1.22963  -4.44568
H     2.41973  -1.08488  -4.63770
C     0.50026   2.70463   1.01946
H     1.25588   2.68912   0.22776
H     1.01457   2.80504   1.99275
H    -0.11846   3.60751   0.87886
C    -1.34644   1.58185   1.98476
H    -1.95633   0.67349   1.97056
H    -2.00623   2.45123   1.82201
H    -0.90303   1.68318   2.99147
C    -2.78399   0.04684  -0.73161
H    -2.47422   1.07471  -0.94427
H    -3.52367   0.06346   0.09014
H    -3.29741  -0.35017  -1.62409
C    -2.03551  -2.10372  -0.04920
H    -1.15836  -2.74561   0.08445
H    -2.67420  -2.54411  -0.83390
H    -2.61899  -2.11985   0.89110
O     0.15421   0.87392  -1.39104
