30

Fe    0.00000   0.00000   0.00000
Cl   -0.00001   0.59203  -1.92020
N    -1.66859  -1.86433  -0.42286
C    -0.00000  -3.52419  -1.38247
H    -0.00000  -4.27820  -2.17397
H    -0.00000  -4.06109  -0.43598
C    -1.29549  -2.72615  -1.54856
H    -1.18995  -2.08376  -2.42583
H    -2.11352  -3.44233  -1.74519
C    -2.83181  -1.06414  -0.81037
H    -3.09915  -0.40052   0.01163
H    -3.69764  -1.69965  -1.04777
H    -2.59038  -0.46121  -1.68384
C    -2.02861  -2.65734   0.74778
H    -1.16696  -3.20814   1.11215
H    -2.83808  -3.36662   0.52051
H    -2.35380  -1.99098   1.54351
C     1.29549  -2.72615  -1.54856
N     1.66858  -1.86433  -0.42286
C     2.83180  -1.06414  -0.81037
H     3.09914  -0.40052   0.01163
H     3.69763  -1.69965  -1.04777
H     2.59037  -0.46121  -1.68384
C     2.02861  -2.65734   0.74778
H     1.16696  -3.20814   1.11216
H     2.83808  -3.36663   0.52051
H     2.35379  -1.99098   1.54351
H     1.18994  -2.08377  -2.42583
H     2.11351  -3.44233  -1.74518
O    -0.00001  -0.16082   1.64214
