30

Br   -0.00006  -0.98925  -1.96549
Ni    0.00000   0.00000   0.00000
N     1.64787   1.46581  -0.29342
C     1.29602   2.39407  -1.38349
H     1.21170   1.81228  -2.30518
H     2.12154   3.11347  -1.50964
C    -0.00013   3.18757  -1.19351
H    -0.00012   3.69716  -0.23105
H    -0.00012   3.96334  -1.96272
C     2.01062   2.21557   0.91296
H     1.15339   2.74952   1.31448
H     2.80762   2.93765   0.69201
H     2.36239   1.52830   1.67991
C     2.83222   0.69669  -0.70339
H     2.63918   0.16381  -1.63293
H     3.08153  -0.02886   0.07159
H     3.69214   1.36238  -0.85317
C    -1.29631   2.39412  -1.38348
N    -1.64815   1.46586  -0.29341
C    -2.01094   2.21562   0.91297
H    -1.15373   2.74962   1.31447
H    -2.80798   2.93766   0.69202
H    -2.36266   1.52833   1.67992
C    -2.83248   0.69672  -0.70339
H    -2.63939   0.16381  -1.63290
H    -3.08180  -0.02881   0.07161
H    -3.69241   1.36238  -0.85322
H    -1.21201   1.81232  -2.30517
H    -2.12181   3.11354  -1.50963
O    -0.00003  -0.28469   1.62525
