36

Au    0.00000   0.00000   0.00000
Br    0.58131  -0.87186   3.36901
P    -0.77471  -2.00335   0.70638
F    -1.40244  -0.57000   5.57109
F    -4.06032  -1.17063   5.62748
F    -5.24277  -2.23800   3.40462
F    -3.81477  -2.69453   1.19513
C    -1.82449  -1.88457   2.20095
C    -1.24533  -1.32499   3.34658
C    -1.98817  -1.08940   4.49495
C    -3.34614  -1.39332   4.52817
C    -3.94542  -1.93479   3.39498
C    -3.18833  -2.16828   2.25015
C     0.43023  -3.26828   1.18949
C     0.15317  -4.26492   2.12143
H    -0.81211  -4.30211   2.61021
C     1.12230  -5.20448   2.42030
H     0.91154  -5.97684   3.14486
C     2.35900  -5.15524   1.79608
H     3.11122  -5.89024   2.03837
C     2.63395  -4.16439   0.86767
H     3.59872  -4.12321   0.38591
C     1.67195  -3.21879   0.56489
H     1.87827  -2.43062  -0.14834
C    -1.77904  -2.82972  -0.55349
C    -1.84010  -4.21295  -0.69116
H    -1.29353  -4.85365  -0.01339
C    -2.60491  -4.76221  -1.70331
H    -2.65566  -5.83540  -1.81065
C    -3.30223  -3.94311  -2.57712
H    -3.89837  -4.38033  -3.36358
C    -3.23216  -2.56523  -2.44874
H    -3.76991  -1.92641  -3.13262
C    -2.46558  -2.00741  -1.44429
H    -2.39603  -0.93111  -1.34050
O     0.56041   1.43152  -0.59934
