70

Zn    0.00000   0.00000   0.00000
S     1.89464  -1.20308  -1.18471
N     1.38463   0.46833  -3.30625
N     3.26485   0.83553  -2.24598
B    -0.00184  -0.00297  -3.78929
H    -0.00124  -0.00385  -4.98065
C     2.15624   0.06862  -2.28210
C     3.19083   1.74417  -3.26489
H     3.96174   2.46638  -3.43395
C     2.02803   1.51511  -3.91447
H     1.59496   2.01138  -4.75725
C     4.34850   0.72022  -1.30100
H     4.02034   0.02865  -0.51745
H     4.53384   1.70256  -0.85770
C     5.58738   0.19383  -1.97887
C     5.56873  -1.07304  -2.54981
H     4.67402  -1.67475  -2.47673
C     6.68865  -1.56213  -3.19644
H     6.66779  -2.54812  -3.63626
C     7.83693  -0.79115  -3.27555
H     8.71239  -1.17445  -3.77819
C     7.86120   0.47001  -2.70650
H     8.75530   1.07303  -2.76298
C     6.73825   0.96316  -2.06413
H     6.76074   1.94768  -1.61864
N    -0.28782  -1.43896  -3.30571
C    -1.01870  -1.90641  -2.28032
S    -1.98816  -1.04315  -1.18258
S     0.08826   2.24160  -1.18664
C    -1.14358   1.83117  -2.28394
N    -1.10328   0.96276  -3.30780
C    -2.33120   0.99609  -3.91666
C    -3.11147   1.88865  -3.26780
N    -2.36220   2.40759  -2.24869
C    -2.80558   3.40279  -1.30346
H    -2.04304   3.46462  -0.51947
H    -3.74884   3.07086  -0.86080
C    -2.97042   4.73945  -1.97988
C    -1.86525   5.35692  -2.55314
H    -0.89685   4.88241  -2.48334
C    -2.00274   6.57252  -3.19737
H    -1.13929   7.04789  -3.63834
C    -3.24435   7.18255  -3.27165
H    -3.35095   8.13338  -3.77214
C    -4.34743   6.57270  -2.70046
H    -5.31654   7.04621  -2.75341
C    -4.21195   5.35243  -2.06062
H    -5.07487   4.87941  -1.61361
H    -4.12232   2.19499  -3.43755
H    -2.54385   0.37261  -4.75938
N    -0.90946  -3.24997  -2.24370
C    -0.08733  -3.64119  -3.26364
H     0.15166  -4.67017  -3.43265
C     0.29547  -2.52018  -3.91425
H     0.94055  -2.39408  -4.75811
C    -1.55115  -4.13036  -1.29830
H    -1.98425  -3.50027  -0.51393
H    -0.79344  -4.78332  -0.85634
C    -2.62815  -4.93800  -1.97586
C    -3.71583  -4.28617  -2.54459
H    -3.78867  -3.21064  -2.46874
C    -4.70049  -5.00919  -3.19211
H    -5.54424  -4.49648  -3.62936
C    -4.60824  -6.38906  -3.27430
H    -5.37887  -6.95380  -3.77734
C    -3.52842  -7.04291  -2.70722
H    -3.45409  -8.11858  -2.76657
C    -2.53868  -6.31927  -2.06405
H    -1.69700  -6.83269  -1.62114
O     0.00425   0.00269   1.64999
