33

C    -1.16926  -1.28472  -0.68778
C     1.06406  -1.42469   0.57332
C     2.34069   1.33628   1.36808
H     2.66557   0.31743   1.54291
C     3.10481   2.39312   1.82403
H     4.02525   2.21653   2.35491
C     2.65659   3.68907   1.58202
C     1.46395   3.86452   0.89343
H     1.11690   4.86773   0.70720
C     0.75227   2.74829   0.46700
C    -0.51764   2.82858  -0.26137
C    -1.12699   4.02891  -0.61097
H    -0.68968   4.98314  -0.36649
C    -2.33368   4.00514  -1.29703
C    -2.89920   2.77258  -1.61319
H    -3.83546   2.71326  -2.14244
C    -2.23080   1.62466  -1.23329
H    -2.64736   0.65215  -1.46764
C     3.40615   4.89643   2.03474
C    -2.97266   5.30113  -1.66665
N     1.19576   1.49824   0.70820
N    -1.07221   1.64114  -0.57756
O    -1.86726  -2.08539  -1.09719
O     1.69782  -2.30821   0.91067
O     3.04008   6.02281   1.82984
O     4.52555   4.59187   2.69106
O    -2.49860   6.37463  -1.40736
O    -4.12695   5.14071  -2.31347
Br    1.25258   0.23392  -2.19438
Ru    0.00000   0.00000   0.00000
H     4.98627   5.39917   2.97043
H    -4.51395   6.00226  -2.53726
O    -0.80454   0.09863   1.43718
