33

Ru    0.00000   0.00000   0.00000
I    -1.32853   0.16118   2.36252
N    -1.19348   1.51355  -0.68329
N     1.07928   1.63402   0.59007
C     1.16736  -1.29942   0.66452
O     1.86572  -2.10776   1.06013
C    -1.06948  -1.41780  -0.58215
O    -1.70645  -2.29725  -0.92632
C    -2.34654   1.36292  -1.33374
H    -2.67723   0.34645  -1.51542
C    -3.11117   2.42646  -1.77099
H    -4.03780   2.25830  -2.29367
C    -2.65598   3.71884  -1.52035
C    -1.45497   3.88357  -0.84410
H    -1.10245   4.88354  -0.65091
C    -0.74263   2.76098  -0.43629
C     0.53371   2.82867   0.28087
C     1.15728   4.02222   0.62793
H     0.72835   4.98087   0.38602
C     2.36773   3.98553   1.30647
C     2.92231   2.74670   1.61940
H     3.86002   2.67743   2.14479
C     2.24162   1.60633   1.24083
H     2.65049   0.62904   1.47170
C    -3.40731   4.93338  -1.94963
O    -3.02963   6.05575  -1.74439
O    -4.54151   4.63965  -2.58484
C     3.02207   5.27513   1.67065
O     2.55924   6.35270   1.40767
O     4.17418   5.10361   2.31821
H    -5.00360   5.45124  -2.84910
H     4.57130   5.96128   2.53890
O     0.80124   0.07006  -1.44070
