43

Zr    0.00000   0.00000   0.00000
Cl    1.42859   0.16567  -1.89649
N    -0.77037   0.06532   1.92915
N     1.93238  -0.38244   1.09708
N    -0.35329   2.04728  -0.05987
N    -1.70687  -0.04505  -1.47247
C    -1.71420   0.79823   2.58473
H    -2.62773   1.09989   2.09705
C    -1.32655   1.05108   3.87796
H    -1.87992   1.59166   4.62093
C    -0.05813   0.46122   4.03916
H     0.54466   0.45929   4.92797
C     0.25039  -0.12554   2.83249
C     1.45259  -0.90799   2.39685
H     1.17706  -1.96309   2.25026
H     2.24687  -0.85634   3.15807
C     2.88537  -1.32050   0.49446
H     2.37913  -2.26081   0.26070
H     3.71998  -1.52128   1.18046
H     3.28181  -0.90250  -0.43326
C     2.57875   0.92149   1.29005
H     1.93005   1.56291   1.89505
H     2.75725   1.39611   0.31758
H     3.53998   0.80602   1.81309
C    -0.34307   3.07186   0.83896
H     0.38965   3.11649   1.62920
C    -1.34578   3.97069   0.56831
H    -1.56037   4.87498   1.10372
C    -2.03903   3.47299  -0.55171
H    -2.88271   3.92268  -1.04089
C    -1.41073   2.29968  -0.90401
C    -1.68284   1.33288  -2.01691
H    -0.87379   1.38478  -2.76082
H    -2.63403   1.57360  -2.51722
C    -2.93478  -0.25736  -0.69635
H    -3.07021   0.57258   0.00443
H    -2.86417  -1.19870  -0.13807
H    -3.81201  -0.30009  -1.35931
C    -1.64007  -1.02051  -2.56579
H    -0.68222  -0.92763  -3.08445
H    -2.45595  -0.85673  -3.28342
H    -1.71840  -2.03341  -2.16523
O    -0.17857  -1.63994  -0.03498
