21

Pt    0.00000   0.00000   0.00000
Br    1.75089  -0.17451   1.61169
N    -1.45212   0.22622  -1.40376
N     1.15923   1.71831  -0.80436
C    -3.48606   1.30162  -2.01574
C    -2.66335  -0.53201  -3.29486
C    -0.53980  -1.67849  -2.60123
C    -3.63071   0.43408  -3.09014
C    -1.57806  -0.62207  -2.42934
C    -2.38296   1.15873  -1.20014
H    -4.21652   2.06667  -1.80966
H    -2.74336  -1.23065  -4.11264
H    -0.89382  -2.60289  -2.14297
H    -0.34294  -1.86901  -3.65319
H     0.38943  -1.39587  -2.09587
H    -4.48309   0.50760  -3.74731
H    -2.23846   1.80462  -0.34167
H     2.10672   1.36388  -0.92767
H     0.85924   2.18814  -1.65350
H     1.19448   2.39030  -0.03958
O    -0.87909  -1.24886   0.62454
