36

Pt    0.00000   0.00000   0.00000
C    -0.94993  -1.72501  -0.36714
C    -1.36203  -2.06984  -1.65096
H    -1.19333  -1.38407  -2.47455
C    -2.00031  -3.27489  -1.89802
H    -2.31217  -3.51707  -2.90518
C    -2.25560  -4.16945  -0.86922
C    -1.85352  -3.82780   0.41628
H    -2.05140  -4.50945   1.23287
C    -1.21132  -2.62711   0.66332
H    -0.91522  -2.38740   1.68027
C    -2.94850  -5.47598  -1.12359
H    -3.28554  -5.54253  -2.15515
H    -3.81122  -5.58379  -0.46766
H    -2.27400  -6.30959  -0.92595
N     1.82087  -0.76254   0.11462
C     2.81849   0.10939   0.42003
C     4.14326  -0.31818   0.50559
H     4.92357   0.38656   0.74123
C     4.46146  -1.64284   0.28421
H     5.48333  -1.98183   0.34894
C     3.43082  -2.52450  -0.02539
H     3.62741  -3.56851  -0.20680
C     2.14104  -2.04538  -0.10031
H     1.31865  -2.70612  -0.33848
N     1.11708   1.76060   0.44799
C     2.42154   1.50028   0.64019
C     3.29773   2.51802   1.02485
H     4.34333   2.31554   1.18875
C     2.81035   3.79900   1.20286
H     3.47509   4.59593   1.50080
C     1.45916   4.04443   0.99551
H     1.04406   5.03065   1.12469
C     0.64940   2.98768   0.61885
H    -0.41216   3.11169   0.44486
O    -1.46309   0.75922  -0.07387
