47

Pt    0.00000   0.00000   0.00000
Cl    0.28370   0.59716   2.28613
O     0.85318  -3.74931   0.13329
N     1.28916  -1.50428   0.53736
H     1.97791  -0.95195   1.05129
C     1.49761  -2.76356   0.68599
C     2.60854  -3.27743   1.60923
C     3.48043  -4.26139   0.82189
H     4.24308  -4.67885   1.47419
H     3.97318  -3.75495  -0.00497
H     2.88041  -5.07471   0.42460
C     3.47910  -2.15098   2.16663
H     4.25705  -2.58446   2.79076
H     2.90329  -1.46900   2.78990
H     3.96824  -1.59287   1.37017
C     1.89864  -3.99618   2.76527
H     2.63527  -4.38010   3.46631
H     1.30437  -4.82603   2.39307
H     1.24323  -3.30796   3.29450
C    -0.21156  -3.55442  -0.79248
H    -0.50343  -4.55399  -1.10770
H     0.12348  -2.97224  -1.65148
H    -1.05523  -3.04854  -0.32015
Cl    1.99938   1.09508  -0.67044
Cl   -0.28399  -0.59756  -2.28604
N    -1.28909   1.50426  -0.53736
H    -1.97795   0.95190  -1.05115
C    -1.49761   2.76353  -0.68589
O    -0.85317   3.74925  -0.13316
C     0.21154   3.55434   0.79265
H     0.50344   4.55390   1.10784
H    -0.12354   2.97221   1.65166
H     1.05520   3.04840   0.32036
C    -2.60860   3.27740  -1.60904
C    -3.48048   4.26133  -0.82167
H    -4.24314   4.67879  -1.47397
H    -3.97323   3.75488   0.00518
H    -2.88047   5.07466  -0.42438
C    -3.47916   2.15093  -2.16642
H    -4.25711   2.58442  -2.79054
H    -2.90334   1.46896  -2.78970
H    -3.96828   1.59281  -1.36995
C    -1.89870   3.99614  -2.76506
H    -2.63532   4.38006  -3.46610
H    -1.30440   4.82597  -2.39286
H    -1.24329   3.30790  -3.29429
O    -1.38825  -0.76016   0.46629
