44

Pt    0.00000   0.00000   0.00000
S     0.40155  -1.94676   1.21166
P     2.17042   1.90378  -1.24310
O     3.14014   2.78283  -1.90410
N    -0.51634   1.64041  -0.96097
C    -1.79525   1.98100  -1.11931
C    -2.17391   3.03042  -1.93809
C    -1.20145   3.75577  -2.61344
C     0.12613   3.40514  -2.42929
C     0.42761   2.33913  -1.59933
C     2.14731   1.90620   0.56437
C     1.18850   1.11048   1.19355
C     1.13950   1.16497   2.58373
C     2.01486   1.97225   3.29576
C     2.96554   2.74286   2.64283
C     3.03069   2.71664   1.26240
C     2.30011   0.15532  -1.75445
C     3.38223  -0.55965  -1.25003
C     3.64084  -1.83996  -1.70884
C     2.82086  -2.40513  -2.67422
C     1.75646  -1.68555  -3.19557
C     1.49921  -0.40033  -2.74925
C     0.45577  -3.29830   0.00332
C     2.14893  -1.99349   1.72417
H    -2.52988   1.38719  -0.58910
H    -3.21953   3.27108  -2.04581
H    -1.47380   4.57318  -3.26344
H     0.94069   3.92449  -2.91164
H     0.40689   0.57571   3.12212
H     1.95355   2.00142   4.37478
H     3.64460   3.36268   3.20960
H     3.74911   3.30685   0.71080
H     4.02120  -0.08717  -0.51386
H     4.48288  -2.39630  -1.32083
H     3.02067  -3.40545  -3.03040
H     1.12512  -2.12432  -3.95303
H     0.69593   0.17573  -3.18852
H    -0.50275  -3.30507  -0.50894
H     1.25334  -3.12414  -0.71313
H     0.60798  -4.22951   0.54281
H     2.30891  -1.19400   2.44008
H     2.33233  -2.95653   2.19303
H     2.79304  -1.85682   0.86108
O    -1.03872  -0.81207  -0.99202
