65

Fe    0.00000   0.00000   0.00000
H    -0.49519   0.40943   1.29793
N    -2.46638   1.76353  -2.22053
P    -0.18156   1.99775  -0.77746
P    -1.98954  -0.43037  -0.69743
P     0.37238  -1.94851   0.94180
P     2.00058   0.24007   0.87237
C    -1.04250   3.27870   0.22091
H    -1.01465   4.23571  -0.30980
H    -2.08409   2.94559   0.26963
C    -0.46341   3.39477   1.61960
H    -1.08203   4.03247   2.24898
H     0.54360   3.80735   1.59169
H    -0.41856   2.40119   2.06208
C     1.43257   2.77282  -1.23651
H     2.07116   2.65509  -0.35220
H     1.84147   2.12362  -2.02096
C     1.45190   4.22385  -1.69740
H     2.47567   4.51328  -1.93208
H     1.08393   4.89299  -0.92251
H     0.85422   4.36367  -2.59455
C    -1.10245   2.23662  -2.35897
H    -1.12640   3.31405  -2.55683
H    -0.56170   1.73931  -3.18521
C    -3.34057   2.38214  -3.19959
H    -4.36412   2.04869  -3.02869
H    -3.05780   2.13691  -4.23427
H    -3.30930   3.46463  -3.07599
C    -2.53202   0.31671  -2.29556
H    -1.92626  -0.09380  -3.12440
H    -3.57649   0.02331  -2.44916
C    -2.28461  -2.21584  -1.07456
H    -1.58052  -2.45083  -1.88273
H    -1.94828  -2.75948  -0.18298
C    -3.68744  -2.66862  -1.45574
H    -3.67820  -3.73944  -1.65630
H    -4.03685  -2.16627  -2.35424
H    -4.39730  -2.48437  -0.65213
C    -3.43048   0.07025   0.32795
H    -3.40693   1.16461   0.33326
H    -4.35621  -0.24915  -0.16121
C    -3.33115  -0.46277   1.74614
H    -4.09961  -0.02862   2.38367
H    -2.35315  -0.20398   2.14808
H    -3.43714  -1.54608   1.76380
C    -0.54945  -2.74576   2.31563
H    -1.39939  -3.31574   1.94277
H    -0.91238  -1.96450   2.98184
H     0.12343  -3.41259   2.85777
C     1.04420  -3.42588   0.08683
H     0.24400  -3.94148  -0.44352
H     1.49658  -4.09853   0.81666
H     1.78712  -3.10610  -0.64370
C     1.86781  -1.33154   1.84057
H     2.74529  -1.98518   1.81779
H     1.59085  -1.09277   2.87226
C     3.58310  -0.01306  -0.02011
H     3.83267   0.88170  -0.58975
H     3.46859  -0.84190  -0.71852
H     4.37761  -0.22845   0.69550
C     2.53725   1.40718   2.18472
H     2.82637   2.36912   1.76360
H     3.38552   0.97712   2.72026
H     1.70417   1.55701   2.86992
O     0.58141  -0.48150  -1.46718
