51

Co    0.00000   0.00000   0.00000
C    -2.32983  -0.12633   1.91509
C     0.62100  -1.39311   2.18236
C     0.78748  -0.01135   2.54357
C     0.84366  -2.52673   3.12815
C     1.20317   0.43937   3.90523
C    -2.34269   0.95472   2.79342
C    -0.22074   1.40396  -2.36895
C    -0.38828   0.00713  -2.73524
C    -0.15838   2.47991  -3.39831
C    -0.50945  -0.41855  -4.15834
C    -2.49501   0.73345   4.14961
C    -2.64471  -0.55856   4.61436
C    -2.66412  -1.63589   3.75095
C    -2.51166  -1.42190   2.39317
H    -0.71303   0.01077   6.87807
H     0.75374  -3.46170   2.57983
H     1.83420  -2.46075   3.57250
H     0.09918  -2.51042   3.92477
H     0.50769   0.06606   4.65658
H     2.20020   0.06935   4.13774
H     1.21124   1.52679   3.92571
H    -2.19808   1.95669   2.41862
H     0.01652   3.43584  -2.91159
H    -1.08850   2.52762  -3.96266
H     0.65302   2.27878  -4.09493
H    -1.32925   0.10254  -4.64916
H     0.41081  -0.18512  -4.69119
H    -0.68046  -1.49089  -4.20286
H    -2.51049   1.54902   4.85441
H    -0.41466  -2.54973  -1.02023
H     0.21632   2.74064   0.37103
H    -2.81042  -2.62476   4.15511
H    -2.50350  -2.25662   1.70823
H    -2.51178  -0.63394  -0.03220
H    -2.38580   1.00692   0.24269
H    -0.63869  -1.65479   6.58842
N    -2.06656   0.08534   0.53508
N     0.18459  -1.55926   0.97313
N     0.47002   0.81171   1.59420
N    -1.19012  -0.87278   6.89263
N    -0.13440   1.61221  -1.10006
N    -0.41899  -0.80339  -1.73385
O    -3.29988  -2.15536   6.59248
O    -0.15916  -2.69126   0.47475
O     0.42499   2.08798   1.72534
O    -3.37978   0.29362   6.98920
O    -0.00536   2.87280  -0.63846
O    -0.59640  -2.12345  -1.95086
S    -2.77345  -0.84493   6.37608
O     1.60396  -0.09367  -0.37556
