54

Co    0.00000   0.00000   0.00000
C    -0.61286  -2.09327   3.02746
C    -1.27262  -0.44725  -4.20307
C    -0.92944   0.07472  -5.43739
C     0.40025   0.17123  -5.81137
C     1.39050  -0.26597  -4.94734
C     1.05630  -0.78801  -3.71122
C     0.01100  -3.11942  -1.44364
C    -0.38580  -3.81608  -0.29953
C     0.14442  -5.05806  -0.01700
C     1.07651  -5.62160  -0.87517
C     1.45051  -4.94926  -2.02489
C     0.14533  -1.65344   1.99015
C     0.92212  -3.70194  -2.31432
C    -2.49600  -1.85508  -1.79356
C    -3.43407  -0.82633  -1.72588
C    -4.78389  -1.10285  -1.84603
C    -5.21301  -2.40418  -2.04363
C    -4.28370  -3.42669  -2.13911
C    -2.93235  -3.15905  -2.01708
C    -1.33419  -1.01874   2.11648
C    -1.86391  -1.71429   3.34733
C     0.94605   2.67211  -2.44002
C     0.07958   2.04305  -1.60200
C     1.54475   1.39739  -1.71636
C     2.20743   2.30876  -2.72839
C    -0.28291  -0.88851  -3.32749
H    -2.31374  -0.51283  -3.92418
H     1.21305  -3.19854  -3.22289
H    -3.12142   0.19733  -1.59104
H    -5.49822  -0.29661  -1.78157
H    -6.26688  -2.62123  -2.12871
H    -4.60966  -4.44198  -2.30931
H    -2.22186  -3.96785  -2.10035
H    -2.69721   1.06696   0.37976
H     2.68444  -1.07968  -0.33439
H    -1.70731   0.41263  -6.10550
H     0.66492   0.58883  -6.77049
H     2.43006  -0.18853  -5.22567
H     1.84871  -1.11066  -3.05203
H    -1.13267  -3.38328   0.35569
H    -0.16610  -5.58496   0.87268
H     1.50336  -6.58659  -0.64884
H     2.16283  -5.39325  -2.70379
N     0.88837  -1.42564   1.00741
N    -1.57120  -0.27044   1.12195
N    -0.83205   1.51743  -0.92144
N     1.62272   0.35304  -1.00535
O     2.00728  -1.95504   0.72642
O    -2.80058   0.31997   1.06228
O    -2.03992   1.88792  -0.80092
O     2.78674  -0.35652  -1.05516
P    -0.71731  -1.46235  -1.64931
O     0.54636   1.06899   1.13192
