59

Pt    0.00000   0.00000   0.00000
P     0.19436   2.27136   0.09092
P    -0.07570  -2.27898  -0.03240
N    -0.67971   0.38467  -3.03191
C    -1.80903   0.14950  -0.91980
C    -1.86707   0.27999  -2.31311
C    -3.09789   0.37612  -2.95452
H    -3.12858   0.47097  -4.03209
C    -4.27039   0.35415  -2.22067
H    -5.22130   0.42883  -2.72857
C    -4.22300   0.23481  -0.84489
H    -5.13558   0.21718  -0.26628
C    -2.99317   0.13348  -0.20572
H    -2.97373   0.03880   0.87417
C    -1.50955  -3.08041  -0.88260
H    -2.39603  -2.76796  -0.32284
H    -1.59496  -2.61913  -1.87064
C    -1.47308  -4.59659  -1.01512
H    -0.67790  -4.91578  -1.68501
H    -2.41777  -4.94926  -1.42571
H    -1.32705  -5.07837  -0.05062
C    -0.14771  -2.93482   1.68473
H    -0.41986  -3.99311   1.68483
H     0.85648  -2.83634   2.10637
C    -1.13035  -2.10664   2.50399
H    -0.85523  -1.04997   2.43323
H    -1.10789  -2.39632   3.55274
H    -2.14724  -2.22275   2.13262
C     1.40586  -3.14228  -0.70386
H     2.24861  -2.86522  -0.06463
H     1.26124  -4.22287  -0.62882
C     1.69113  -2.71491  -2.13838
H     0.84742  -2.93415  -2.79156
H     2.56976  -3.22738  -2.52541
H     1.88653  -1.64247  -2.16991
C    -1.06707   3.27187  -0.81212
H    -0.94416   3.02182  -1.86976
H    -2.04440   2.88262  -0.51422
C    -1.02113   4.78047  -0.61360
H    -1.22963   5.05034   0.41892
H    -1.77554   5.25225  -1.24068
H    -0.05331   5.19275  -0.88998
C     0.18131   2.92877   1.80806
H     1.03646   2.47908   2.32151
H     0.32432   4.01232   1.79656
C    -1.11012   2.53689   2.51543
H    -1.97264   3.01419   2.05399
H    -1.07858   2.81753   3.56652
H    -1.24743   1.45616   2.45162
C     1.80612   2.89261  -0.54603
H     1.76446   3.97775  -0.66648
H     2.56494   2.65894   0.20541
C     2.15648   2.20415  -1.85945
H     2.24259   1.12944  -1.69120
H     3.10979   2.56271  -2.24270
H     1.38819   2.37679  -2.61112
H    -0.73243   0.13725  -4.00839
H     0.11609  -0.01987  -2.54674
O     1.43227  -0.11580   0.81098
