33

Os    0.00000   0.00000   0.00000
C    -1.39192  -0.73864  -1.01993
C    -1.26889   0.74664   1.17323
C     0.40307  -1.75838   0.96276
C     1.83911  -2.09745  -0.93774
C     2.74773  -2.84108  -1.69620
H     3.06273  -3.81384  -1.35297
C     3.21566  -2.30558  -2.87762
H     3.91668  -2.85799  -3.48435
C     2.76872  -1.05039  -3.27738
H     3.10706  -0.60622  -4.19855
C     1.87347  -0.37660  -2.47137
H     1.48618   0.60104  -2.73650
C     1.68317   1.02600   2.50178
C     2.64357   1.84528   3.12991
H     2.61104   1.94856   4.20350
C     3.58853   2.49613   2.37986
H     4.32537   3.12912   2.85024
C     3.57778   2.31815   0.99856
H     4.30114   2.80249   0.36444
C     2.60025   1.52311   0.44809
H     2.55310   1.40644  -0.62578
N     1.42398  -0.87886  -1.32158
N     1.31481  -2.54294   0.24054
H     1.60062  -3.44075   0.61742
N     1.65964   0.88587   1.15976
N     0.75532   0.40375   3.25911
H     0.22683  -0.38142   2.90173
H     0.84180   0.47371   4.25802
O    -2.24160  -1.17758  -1.65234
O    -2.07342   1.24014   1.82366
O     0.05875  -2.16575   2.05690
O     0.01808   1.39731  -0.87733
