29

Pd    0.00000   0.00000   0.00000
Cl    1.61497   1.20095  -0.89287
N     0.81313  -1.78099  -0.54024
N    -1.35513  -1.23003   0.79354
N    -5.67216   0.61683   3.82355
O    -6.78468   0.26309   3.49501
O    -5.42460   1.33477   4.76733
C     1.94354  -2.00568  -1.20590
H     2.55742  -1.13342  -1.40245
C     2.31482  -3.27051  -1.62613
H     3.23811  -3.40699  -2.16478
C     1.48388  -4.35285  -1.34564
H     1.75163  -5.34789  -1.66529
C     0.31262  -4.12952  -0.65306
H    -0.36237  -4.93630  -0.41445
C    -0.00678  -2.82507  -0.25767
C    -1.17841  -2.48098   0.48964
H    -1.85479  -3.25618   0.84193
C    -2.44241  -0.80619   1.54828
C    -3.74383  -1.21854   1.24717
H    -3.91632  -1.87531   0.40750
C    -4.80339  -0.74196   1.98843
H    -5.81873  -1.03424   1.76827
C    -4.56156   0.13482   3.04024
C    -3.27081   0.55030   3.35193
H    -3.12100   1.24024   4.16783
C    -2.21162   0.08425   2.60458
H    -1.19468   0.38869   2.82329
O    -0.80774   1.40024   0.33071
