33

Pt    0.00000   0.00000   0.00000
Cl    1.63949  -1.50334   0.18203
N    -1.61855   0.74339   3.57999
N    -0.85573  -0.27315   3.92613
N    -0.11605  -0.71608   2.95283
N    -0.38238   0.02388   1.92455
C    -1.31491   0.92885   2.31422
C    -0.86377  -0.83938   5.26051
C    -2.26254  -1.40747   5.50568
H    -3.00986  -0.62472   5.39944
H    -2.32268  -1.81608   6.51007
H    -2.47987  -2.20206   4.79541
C     0.19769  -1.92987   5.31483
H    -0.00961  -2.70407   4.58170
H     0.21092  -2.37488   6.30558
H     1.18017  -1.51960   5.09898
C    -0.55695   0.29280   6.24056
H     0.43404   0.69984   6.05322
H    -0.58932  -0.08370   7.25868
H    -1.28932   1.08940   6.13555
C    -1.80613   1.95720   1.36091
H    -1.19008   2.85453   1.48956
H    -2.84634   2.22619   1.58874
N    -1.65212   1.46387  -0.01586
C    -1.46229   2.56983  -0.95089
H    -1.30515   2.15836  -1.94714
H    -0.57353   3.13696  -0.67735
H    -2.33315   3.23553  -0.95844
C    -2.82299   0.68214  -0.41339
H    -3.72157   1.31141  -0.44851
H    -2.99175  -0.13274   0.29234
H    -2.64505   0.25858  -1.40155
O     0.14403   0.02284  -1.64354
