47

Pd    0.00000   0.00000   0.00000
P    -0.38418  -1.54355   2.32355
S     0.80884   0.00313  -2.12616
S    -0.98732   0.33859   2.14364
N     1.84213  -0.97271   0.49589
O     3.65066  -2.08480  -0.36048
C     2.28362  -1.15174   1.80176
C     1.35925  -1.55227   2.77937
C     1.74289  -1.73818   4.10234
H     1.00229  -2.02841   4.83530
C     3.06343  -1.56092   4.46312
H     3.37019  -1.71775   5.48586
C     3.98785  -1.16465   3.50590
H     5.01827  -1.00953   3.78924
C     3.61042  -0.95784   2.19519
H     4.33779  -0.64956   1.46134
C     2.61174  -1.45593  -0.48989
C     2.08624  -1.25748  -1.92072
H     1.63158  -2.19662  -2.24659
H     2.92498  -1.03391  -2.58269
C     1.77488   1.51746  -1.80685
H     2.44933   1.68998  -2.64251
H     2.33312   1.41668  -0.87217
H     1.05198   2.33125  -1.73237
C    -0.63925  -2.60078   0.83968
C    -1.66792  -2.27407  -0.05398
H    -2.38649  -1.49193   0.19837
C    -1.79308  -2.99027  -1.23353
H    -2.58000  -2.74111  -1.92935
C    -0.90746  -4.02140  -1.51951
H    -1.00064  -4.56637  -2.44707
C     0.09454  -4.35378  -0.62309
H     0.78226  -5.15534  -0.84787
C     0.23613  -3.64355   0.55823
H     1.03911  -3.87724   1.24482
C    -1.28846  -2.36716   3.66416
C    -2.02184  -1.60836   4.56647
H    -2.05692  -0.53420   4.44828
C    -2.69938  -2.23525   5.59704
H    -3.26958  -1.64777   6.30082
C    -2.64831  -3.61411   5.72180
H    -3.17973  -4.10240   6.52490
C    -1.92013  -4.37096   4.81668
H    -1.88422  -5.44573   4.91519
C    -1.23839  -3.75148   3.78578
H    -0.66802  -4.33452   3.07648
O    -1.25319   0.88428  -0.60834
