28

Zn    0.00000   0.00000   0.00000
Cl   -1.77075   0.29328   1.21882
N     0.12376  -2.46939  -1.99482
N     0.06290  -2.00932  -0.74565
C     0.47959  -2.98646   0.04400
C     0.81803  -4.10799  -0.71316
C     0.57577  -3.73447  -2.01566
C    -0.27585  -1.67553  -3.12440
C     0.91239  -1.00502  -3.82535
C     1.55772   0.11321  -2.99843
N     0.64433   1.19941  -2.77254
N    -0.21124   1.19158  -1.75040
C    -0.93930   2.29542  -1.84525
C    -0.54878   3.03075  -2.96304
C     0.46811   2.29229  -3.52957
H     0.51660  -2.85078   1.10694
H     1.18346  -5.04874  -0.35881
H     0.68694  -4.27879  -2.93198
H    -1.70200   2.50353  -1.12104
H    -0.94476   3.96533  -3.30079
H     1.06653   2.48005  -4.39838
H    -0.79060  -2.32783  -3.83561
H    -0.98230  -0.92331  -2.76617
H     1.67466  -1.75493  -4.04162
H     0.55892  -0.59479  -4.77384
H     1.89115  -0.25441  -2.02306
H     2.42613   0.50387  -3.53281
O     1.62305   0.14653   0.25837
