42

Ti    0.00000   0.00000   0.00000
Cl   -0.18122  -2.18011  -0.20635
O     0.39420   0.40632  -1.52722
N     0.53484   0.91987  -2.77413
C    -0.83019   0.76675   2.03984
C    -1.77080  -0.13080   1.51341
C    -2.24833   0.39776   0.28948
C    -1.61451   1.64392   0.07688
C    -0.71768   1.86099   1.14824
C     0.11249  -0.05694  -3.78890
C     0.22230   0.61096  -5.16557
C     1.58571   1.25336  -5.39347
C     1.86086   2.27498  -4.29615
C     1.80134   1.65752  -2.89306
C    -1.36392  -0.35427  -3.47560
C     0.89384  -1.37783  -3.72303
C     1.71999   2.77573  -1.83982
C     3.03683   0.79758  -2.58691
H    -0.34203   0.68836   3.00330
H    -2.13938  -1.02677   1.99718
H    -3.05980  -0.01152  -0.30094
H    -1.84555   2.34893  -0.71335
H    -0.15004   2.76640   1.32894
H    -0.54448   1.38477  -5.23943
H     0.02334  -0.13787  -5.93323
H     1.59570   1.75106  -6.36489
H     2.36683   0.49329  -5.41087
H     1.11127   3.06629  -4.36066
H     2.84362   2.72665  -4.43688
H    -1.80520  -0.93986  -4.27751
H    -1.91862   0.57763  -3.37263
H    -1.43991  -0.91962  -2.54148
H     1.00169  -1.69040  -2.68117
H     0.34543  -2.15046  -4.25593
H     1.87963  -1.29432  -4.16895
H     1.77249   2.34516  -0.83482
H     0.78221   3.32000  -1.94436
H     2.54577   3.47021  -1.96819
H     2.84767   0.18231  -1.70356
H     3.30210   0.15006  -3.41636
H     3.88542   1.44378  -2.37711
O     1.49419  -0.00650   0.69990
