39

Rh    0.00000   0.00000   0.00000
N    -1.78981  -0.29409  -0.89837
C    -2.20101   1.89312  -0.06207
C    -2.59663   0.80421  -0.88013
C    -2.16777  -1.33966  -1.60375
C    -3.34923  -1.36137  -2.35930
C    -4.15043  -0.25260  -2.39964
C    -3.78472   0.88314  -1.64710
C    -4.52384   2.08286  -1.62460
C    -4.10178   3.14097  -0.86430
C    -2.94983   3.04854  -0.07339
C    -1.02860   1.69458   0.80136
C    -0.94150   0.67815   1.79799
C     0.00294   1.15369   2.89368
C     0.54167   2.44782   2.36431
C    -0.09349   2.76946   1.15557
C     0.22751   3.93669   0.47924
C     1.18810   4.77305   1.02457
C     1.82032   4.45026   2.21541
C     1.50385   3.28049   2.89363
C    -2.05583  -0.24932   2.21823
C     1.70596   0.31925   0.59596
O     2.80077   0.51422   0.85797
H    -1.50684  -2.19658  -1.60010
H    -3.59854  -2.25250  -2.91320
H    -5.05316  -0.22914  -2.99254
H    -5.42183   2.15067  -2.22021
H    -4.66889   4.05980  -0.85717
H    -2.65433   3.88280   0.54466
H     0.79117   0.43541   3.13159
H    -0.56000   1.32581   3.81685
H    -0.24936   4.18056  -0.45891
H     1.45349   5.68539   0.51099
H     2.56942   5.11466   2.61908
H     2.00200   3.03135   3.81910
H    -2.48197   0.09300   3.16272
H    -1.67622  -1.26138   2.37596
H    -2.85790  -0.28825   1.48369
O     0.69723  -1.03197  -1.08232
