62

Pd    0.00000   0.00000   0.00000
Cl    2.22323  -0.15155  -0.47564
P    -2.13174   0.44457   0.52162
P     0.53269   2.11673   0.43213
O    -1.80121   1.89275   2.69771
C    -2.12787   2.11432   1.33029
C    -3.36972   2.97937   1.41584
C    -3.23386   3.67038   2.54019
C    -1.89797   3.24169   3.10861
C    -0.85485   3.94532   2.19120
C    -0.98749   3.10222   0.91189
C    -3.31197  -0.51959   1.50600
C    -3.16648  -1.90478   1.44479
C    -4.03687  -2.72179   2.14342
C    -5.05037  -2.16573   2.90680
C    -5.19162  -0.78882   2.97290
C    -4.32863   0.03795   2.27630
C    -2.98684   0.75938  -1.05512
C    -4.36851   0.89670  -1.14936
C    -4.95491   1.13531  -2.37933
C    -4.17108   1.23088  -3.51814
C    -2.79695   1.07184  -3.43284
C    -2.20405   0.83083  -2.20667
C     1.31720   0.89919   2.74442
C     2.08221   0.69820   3.87726
C     3.10788   1.57857   4.18794
C     3.37383   2.65558   3.35970
C     2.60932   2.86924   2.22513
C     1.32826   3.26336  -0.72586
C     1.48910   4.61370  -0.42211
C     2.08102   5.45940  -1.34216
C     2.49735   4.97128  -2.57099
C     2.31237   3.63535  -2.88614
C     1.72738   2.78153  -1.96787
C     1.56762   1.99981   1.92110
H    -4.12083   3.03661   0.65197
H    -3.85762   4.43490   2.95956
H    -1.73779   3.34430   4.17799
H     0.13811   3.86241   2.63300
H    -1.10007   4.99501   2.03708
H    -1.28250   3.68959   0.03568
H    -2.36170  -2.32819   0.85511
H    -3.91922  -3.79418   2.09406
H    -5.72854  -2.80271   3.45571
H    -5.97800  -0.35347   3.57298
H    -4.44015   1.11008   2.34578
H    -4.98016   0.79627  -0.26323
H    -6.02776   1.23889  -2.45105
H    -4.63368   1.41444  -4.47642
H    -2.18963   1.12497  -4.32401
H    -1.11817   0.66677  -2.13970
H     0.52090   0.18688   2.48727
H     1.88950  -0.15396   4.51171
H     3.71144   1.41408   5.06820
H     4.18646   3.32897   3.59007
H     2.83817   3.69552   1.56728
H     1.14630   5.00202   0.52706
H     2.21702   6.50369  -1.10049
H     2.96130   5.63662  -3.28401
H     2.62624   3.25731  -3.84746
H     1.59209   1.73041  -2.19553
O    -0.23353  -1.60700  -0.29241
