30

Ni    0.00000   0.00000   0.00000
S     0.48504   2.08652  -0.34890
N    -0.45569  -1.82165   0.65590
N    -0.01954   0.42711   1.80171
N     0.22322   1.64818   2.27061
N     0.73832   3.80654   1.68318
C    -0.67226  -2.94307  -0.01453
C    -0.98753  -4.13797   0.61354
C    -1.07877  -4.16076   1.99841
C    -0.85333  -2.99606   2.70524
C    -0.54068  -1.82524   2.00891
C    -0.28867  -0.54838   2.63356
C    -0.33485  -0.35918   4.11600
C     0.47924   2.54256   1.33331
C     1.01400   4.84681   0.72842
C     0.72969   4.21728   3.06549
H    -0.58922  -2.87647  -1.09210
H    -1.15689  -5.02666   0.02812
H    -1.32273  -5.07528   2.51825
H    -0.91632  -2.98063   3.78104
H    -0.11263   0.67851   4.34721
H    -1.32285  -0.60773   4.50140
H     0.39827  -0.99961   4.60475
H     1.00792   4.43683  -0.27803
H     0.25605   5.63098   0.80078
H     1.99343   5.28686   0.93108
H     0.53288   3.35297   3.69216
H     1.69744   4.64922   3.33101
H    -0.04579   4.97009   3.22805
O     0.02168  -0.39085  -1.60289
