70

Zn    0.00000   0.00000   0.00000
O     1.19683  -4.83951   4.75768
O     4.94419  -2.87995  -3.97587
O     5.21899   3.95113   1.95025
N    -1.72069  -0.75227   0.72140
N    -2.78035  -0.13300   0.18516
N    -0.57159  -0.23909  -1.92836
N    -1.82012   0.22638  -2.08146
N    -0.54102   1.93629  -0.02428
N    -1.81648   2.07235  -0.40909
B    -2.61937   0.88402  -0.94919
H    -3.67737   1.24049  -1.34124
C    -3.89753  -0.54005   0.79817
H    -4.85760  -0.16149   0.51027
C    -3.55525  -1.45404   1.76960
H    -4.20932  -1.98359   2.43073
C    -2.16006  -1.56805   1.68304
C    -1.27525  -2.42799   2.45406
C    -0.16376  -3.01999   1.86402
H     0.03570  -2.85865   0.81443
C     0.68449  -3.82902   2.59551
H     1.54166  -4.26002   2.10430
C     0.42998  -4.06648   3.94242
C    -0.69810  -3.49261   4.53405
H    -0.88534  -3.69042   5.57783
C    -1.53760  -2.68681   3.80009
H    -2.39512  -2.23281   4.27414
C     2.37843  -5.39836   4.23538
H     2.84601  -5.92634   5.06521
H     2.16457  -6.10891   3.43013
H     3.05863  -4.62466   3.86672
C    -2.22401   0.02237  -3.34046
H    -3.19712   0.32845  -3.66752
C    -1.21024  -0.59966  -4.03184
H    -1.20587  -0.88512  -5.06308
C    -0.17177  -0.74556  -3.09892
C     1.14513  -1.32260  -3.32172
C     1.33173  -2.27443  -4.32045
H     0.48816  -2.60880  -4.90570
C     2.57750  -2.82005  -4.56868
H     2.67818  -3.55828  -5.34898
C     3.67557  -2.41771  -3.81455
C     3.49497  -1.46346  -2.81025
H     4.35024  -1.16021  -2.22851
C     2.25268  -0.92464  -2.57069
H     2.13856  -0.18037  -1.79773
C     5.19223  -3.83882  -4.97422
H     6.25819  -4.05388  -4.91814
H     4.62859  -4.76054  -4.79661
H     4.95403  -3.45342  -5.97113
C    -2.20550   3.34041  -0.23507
H    -3.19770   3.65617  -0.48759
C    -1.14814   4.05575   0.28211
H    -1.11751   5.09796   0.52354
C    -0.10360   3.12678   0.39201
C     1.26822   3.35096   0.82444
C     1.55115   4.22721   1.86561
H     0.74182   4.72804   2.37663
C     2.85286   4.45191   2.27507
H     3.03330   5.13142   3.09337
C     3.90391   3.80047   1.63732
C     3.62493   2.92933   0.58159
H     4.44891   2.43366   0.09447
C     2.32795   2.70929   0.18209
H     2.12625   2.05163  -0.65000
C     5.56658   4.80104   3.01521
H     6.65200   4.75303   3.08852
H     5.26398   5.83552   2.82066
H     5.12600   4.46448   3.95918
O     1.41305  -0.41022   0.74667
