48

Cd    0.00000   0.00000   0.00000
Br   -1.82064  -0.21001   1.70764
N     2.34864  -0.73321   0.71161
N     1.02726  -1.23831  -1.81957
N    -1.48313  -0.28742  -1.90143
C     3.06594  -0.79102  -0.56108
H     4.09292  -1.16622  -0.41780
H     3.12651   0.22681  -0.95782
C     2.38259  -1.66386  -1.62494
H     2.98014  -1.60891  -2.54524
H     2.34925  -2.70621  -1.29143
C     0.60767  -0.81692  -2.94508
C    -0.79125  -0.35702  -3.04201
C     2.45172  -2.00085   1.43927
H     3.51214  -2.22131   1.65525
H     2.05515  -2.80500   0.81446
C     1.42809  -0.72243  -4.17894
C    -3.37982   0.50095  -3.10128
H    -4.40260   0.84098  -3.07645
C    -2.73651   0.12776  -1.92800
H    -3.24690   0.16613  -0.97219
C     2.92576   0.33025   1.54363
H     2.89488   1.27034   0.98569
H     3.98096   0.09934   1.76811
C     1.97997   0.50679  -4.52723
H     1.80923   1.36604  -3.89504
C     1.66673  -1.95090   2.74661
H     0.60822  -1.78887   2.52916
H     1.76034  -2.91189   3.25537
C     1.64895  -1.83676  -4.98051
H     1.21743  -2.78868  -4.70447
C     2.74644   0.61370  -5.67413
H     3.17533   1.56740  -5.94140
C     2.41194  -1.71902  -6.12910
H     2.57805  -2.58531  -6.75200
C    -1.35827  -0.00470  -4.26528
H    -0.77827  -0.06868  -5.17271
C     2.96048  -0.49559  -6.47631
H     3.55563  -0.40750  -7.37281
C    -2.67222   0.43380  -4.28983
H    -3.13214   0.72122  -5.22350
C     2.15112   0.48252   2.84825
H     2.59111   1.29294   3.43143
H     1.11257   0.75492   2.62654
C     2.18157  -0.82340   3.63425
H     1.56474  -0.74017   4.52927
H     3.20722  -1.03849   3.94687
O     0.50869   1.44311  -0.61739
