43

Br    1.69474  -0.27926  -1.86990
V     0.00000   0.00000   0.00000
O     1.55415   0.01101   1.46176
C     1.33168   0.50676   2.79052
H     0.90251  -0.30803   3.38534
H     0.61285   1.33288   2.75667
C     2.68623   0.96195   3.33771
H     2.80614   2.03722   3.20276
H     2.79621   0.72679   4.39359
C     3.67102   0.20994   2.44739
H     4.64217   0.69238   2.37690
H     3.80677  -0.81425   2.80068
C     2.92471   0.21941   1.12116
H     3.03310   1.19224   0.61875
H     3.23771  -0.57316   0.43796
O    -0.00056  -2.02211  -0.00063
C    -0.35872  -2.83907  -1.10891
H     0.44636  -2.78611  -1.85694
H    -1.28297  -2.45171  -1.55252
C    -0.51229  -4.25617  -0.56494
H    -0.32003  -5.00931  -1.32479
H    -1.51479  -4.40402  -0.16000
C     0.35754  -2.83962   1.10715
H    -0.44964  -2.79118   1.85327
H     1.27916  -2.44967   1.55390
C     0.51763  -4.25497   0.56062
H     0.32874  -5.01046   1.31899
H     1.52081  -4.39739   0.15541
Br   -1.69273  -0.28016   1.87102
O    -1.55508   0.01061  -1.46229
C    -1.33180   0.50361  -2.79188
H    -0.90317  -0.31274  -3.38492
H    -0.61224   1.32916  -2.75947
C    -2.68574   0.95927  -3.34039
H    -2.80334   2.03534  -3.21000
H    -2.79662   0.71990  -4.39523
C    -3.67198   0.21311  -2.44674
H    -4.64167   0.69859  -2.37711
H    -3.81097  -0.81189  -2.79640
C    -2.92458   0.22480  -1.12117
H    -3.02933   1.19969  -0.62196
H    -3.23954  -0.56442  -0.43506
O     0.00026   1.65000  -0.00096
