34

Pd    0.00000   0.00000   0.00000
S    -0.40599   1.43002   1.96065
O     0.28782  -3.32596  -4.36951
N     1.89833  -0.05310   0.67256
C     2.08254  -1.53718  -1.10881
C     2.77536  -2.44514  -1.92668
H     3.80272  -2.69340  -1.70089
C     2.14787  -3.01599  -3.00182
H     2.65521  -3.71860  -3.64395
C     0.80929  -2.70030  -3.29296
C     0.11291  -1.79589  -2.48701
H    -0.91592  -1.54749  -2.70462
C     0.72957  -1.20655  -1.39856
C     2.65612  -0.88550   0.01559
H     3.68799  -1.08355   0.29911
C     2.30526   0.72997   1.73994
C     1.33450   1.48219   2.42557
C     1.67864   2.28697   3.49678
H     0.90155   2.83432   4.00855
C     2.99774   2.38482   3.90242
H     3.26343   3.01474   4.73676
C     3.97170   1.66821   3.22470
H     5.00509   1.74263   3.52842
C     3.63589   0.85598   2.16096
H     4.41567   0.31773   1.64510
C    -1.05998  -3.08706  -4.71212
H    -1.25674  -3.71307  -5.58102
H    -1.22521  -2.03793  -4.97326
H    -1.73414  -3.36909  -3.89870
C    -0.42018   2.83044   0.77625
H    -1.44569   2.90313   0.41740
H     0.25699   2.62865  -0.06676
H    -0.13191   3.74095   1.29581
O    -1.54432   0.05585  -0.57833
