64

C     3.64077   0.11396  -2.07638
H     3.47923  -0.48579  -2.97853
H     4.38590  -0.40008  -1.45702
C     4.17826   1.48533  -2.49087
H     4.48035   2.04814  -1.60417
H     3.38576   2.04156  -2.99569
C     5.36700   1.35262  -3.42712
H     6.13968   0.71447  -2.99370
H     5.78853   2.33311  -3.65225
C     6.44037   0.77313  -5.89881
H     6.70112   1.82476  -5.98337
H     6.29878   0.34447  -6.88497
H     7.21267   0.22769  -5.36332
C     2.72875   2.01616   0.77214
C     2.48166   3.08677  -0.08260
H     1.99575   2.90656  -1.03332
C     2.84824   4.36675   0.28649
H     2.66445   5.19386  -0.38355
C     3.43628   4.58885   1.52229
H     3.71776   5.59011   1.81259
C     3.64343   3.53145   2.39350
H     4.07864   3.71015   3.36558
C     3.28359   2.24703   2.02698
H     3.42232   1.42212   2.71169
C     3.26479  -0.79740   1.08572
C     2.74037  -2.00901   1.52331
H     1.66754  -2.16237   1.47902
C     3.58065  -2.98647   2.02499
H     3.17294  -3.92348   2.37341
C     4.94615  -2.75730   2.08171
H     5.60520  -3.51850   2.47225
C     5.47132  -1.55058   1.64533
H     6.53634  -1.37551   1.69548
C     4.63551  -0.56671   1.14773
H     5.04046   0.38280   0.82405
C     0.59428   1.19441  -3.23757
C     1.26851   1.20878  -4.45428
H     1.90025   0.37986  -4.74061
C     1.12994   2.29740  -5.29595
H     1.65937   2.31263  -6.23698
C     0.32013   3.36331  -4.93325
H     0.21576   4.20860  -5.59753
C    -0.35836   3.34592  -3.72516
H    -0.99427   4.17310  -3.44693
C    -0.21922   2.26304  -2.87542
H    -0.74813   2.22396  -1.92839
C     0.98471  -1.63892  -2.96550
C     0.16426  -1.84491  -4.07035
H    -0.51489  -1.06426  -4.38347
C     0.21820  -3.04694  -4.75135
H    -0.41563  -3.20629  -5.61102
C     1.07763  -4.04842  -4.32819
H     1.11799  -4.98583  -4.86254
C     1.87509  -3.85543  -3.21106
H     2.53239  -4.64267  -2.87174
C     1.82132  -2.65878  -2.52172
H     2.42322  -2.51064  -1.63371
N     2.38579   0.17847  -1.35623
P     2.10239   0.37311   0.32656
P     0.81951  -0.11735  -1.99885
S     4.86233   0.60685  -5.02201
Cl   -0.43895   0.09019   2.02824
Ni    0.00000   0.00000   0.00000
O    -1.55136  -0.23118  -0.51219
