35

Os    0.00000   0.00000   0.00000
S    -0.35954  -1.98327  -0.89469
Cl    2.10881  -0.69239   0.47756
O    -0.18885  -1.89612  -2.33658
C     0.65718   2.56955  -0.38338
H     1.51672   3.13587  -0.05030
C    -0.46168   2.45970   0.42873
H    -0.49989   2.96771   1.38405
C    -1.56009   1.66751   0.00755
H    -2.45298   1.62071   0.61869
C    -1.55647   1.12098  -1.29095
H    -2.45164   0.65542  -1.68302
C    -0.45694   1.33001  -2.14374
H    -0.49099   0.96444  -3.15994
C     0.68078   1.99203  -1.68354
C     1.87596   2.09812  -2.52979
C     2.59177   3.28894  -2.62417
H     2.24932   4.16614  -2.09364
C     3.72119   3.36075  -3.41787
H     4.26586   4.29049  -3.49139
C     4.15531   2.24450  -4.11339
H     5.04266   2.30163  -4.72592
C     3.45280   1.05437  -4.01685
H     3.79447   0.17947  -4.54910
C     2.31641   0.97847  -3.23436
H     1.78427   0.04238  -3.13787
C     0.59236  -3.39447  -0.27998
H     0.26858  -4.28661  -0.80187
H     0.40887  -3.45180   0.78690
H     1.64148  -3.19243  -0.46490
C    -2.03479  -2.63293  -0.59500
H    -2.74911  -1.95476  -1.04701
H    -2.17338  -2.66677   0.47945
H    -2.11431  -3.61367  -1.04762
O    -0.61725  -0.63072   1.39416
