46

Pt    0.00000   0.00000   0.00000
As   -1.73995   0.48721   1.55594
Cl    1.81367  -0.08984  -1.39572
S    -1.20192  -1.41708  -1.46896
C    -1.02621  -0.55752  -3.05683
H     0.01514  -0.26808  -3.18407
H    -1.66712   0.31878  -3.02454
H    -1.35289  -1.22755  -3.84754
C    -0.04619  -2.78438  -1.76449
H    -0.42521  -3.38105  -2.58989
H    -0.00789  -3.38182  -0.85869
H     0.93480  -2.36912  -1.98632
C    -3.38534  -0.55271   1.38275
C    -4.65736  -0.00147   1.34497
H    -4.78012   1.07350   1.40929
C    -5.76705  -0.82109   1.22005
H    -6.75579  -0.38623   1.19092
C    -5.61295  -2.19416   1.13183
H    -6.48076  -2.82977   1.03565
C    -4.34491  -2.75242   1.15844
H    -4.22271  -3.82324   1.08215
C    -3.23846  -1.93215   1.27697
H    -2.23473  -2.35326   1.28154
C    -2.31549   2.29195   1.16966
C    -1.91915   2.84776  -0.04103
H    -1.26781   2.26621  -0.69704
C    -2.31576   4.12657  -0.38950
H    -1.99736   4.55736  -1.32750
C    -3.11674   4.85662   0.47357
H    -3.42593   5.85649   0.20684
C    -3.51436   4.31104   1.68384
H    -4.13293   4.88600   2.35813
C    -3.11547   3.03237   2.03324
H    -3.41308   2.60502   2.98660
C    -1.51994   0.49840   3.48509
C    -0.94379   1.60136   4.10789
H    -0.63337   2.44930   3.50731
C    -0.75457   1.60528   5.47838
H    -0.30517   2.46367   5.95598
C    -1.13465   0.50949   6.23622
H    -0.98404   0.51308   7.30569
C    -1.70427  -0.59269   5.62108
H    -1.99859  -1.44946   6.21011
C    -1.89427  -0.60099   4.24970
H    -2.33994  -1.46466   3.76693
O     0.78377   0.99841   1.05421
