54

Zr    0.00000   0.00000   0.00000
Cl   -1.01139  -1.80551   1.11909
C     1.14603   0.35855   2.16126
H     1.56629  -0.46397   2.72932
C    -0.15200   0.89677   2.32106
H    -0.88942   0.56345   3.04152
C    -0.26949   2.01514   1.46983
H    -1.09667   2.71431   1.45605
C     0.95689   2.17189   0.78050
H     1.23664   3.02867   0.18111
C     1.83409   1.14947   1.21327
H     2.88405   1.05991   0.95754
C    -1.04755   1.57600  -1.56868
H    -0.88433   2.64571  -1.60921
C    -2.13389   0.94368  -0.91430
H    -2.91184   1.44054  -0.34681
C    -2.13525  -0.41427  -1.29096
H    -2.88937  -1.14574  -1.02890
C    -1.03530  -0.63682  -2.14921
H    -0.81727  -1.57418  -2.64695
C    -0.35621   0.59992  -2.33762
C     0.77910   0.89824  -3.29815
C     1.28139  -0.38346  -3.97009
H     1.66509  -1.07388  -3.22096
H     2.08583  -0.14549  -4.66235
H     0.48814  -0.87427  -4.52720
C     1.94888   1.52923  -2.52232
H     1.65912   2.49040  -2.10002
H     2.78583   1.70249  -3.19626
H     2.28050   0.85509  -1.72516
C     0.29358   1.90899  -4.35812
H     0.07915   2.86666  -3.88199
H     1.09096   2.08391  -5.08193
C    -0.96613   1.46550  -5.09843
H    -0.74348   0.63614  -5.76784
H    -1.71375   1.13587  -4.37168
C    -1.54921   2.62521  -5.89260
O    -1.11775   3.75910  -5.78874
N    -2.58723   2.33681  -6.71571
C    -3.17064   1.02585  -6.89645
H    -4.23606   1.15974  -7.10346
H    -3.08515   0.45064  -5.97324
C    -2.52876   0.25635  -8.05253
H    -2.65164   0.79857  -8.98674
H    -2.99786  -0.71869  -8.15392
H    -1.46482   0.11528  -7.88126
C    -3.16422   3.42023  -7.49355
H    -3.45843   3.03186  -8.47160
H    -2.38507   4.17360  -7.62812
C    -4.36004   4.05277  -6.78731
H    -5.14145   3.31742  -6.60605
H    -4.77055   4.85252  -7.39763
H    -4.04318   4.46754  -5.83421
O     1.23044  -1.01044  -0.43305
