65

Cu    0.00000   0.00000   0.00000
P    -1.79458   1.34591  -0.36937
N    -0.87364  -1.78140   0.27047
N    -0.12072  -2.60943  -3.16340
N     0.66036  -1.75885  -3.84491
H     0.94969  -1.98417  -4.78377
N     0.35071  -0.81399  -1.93700
C    -1.58149  -2.13290   1.34049
H    -1.40389  -1.55251   2.23470
C    -2.48563  -3.17647   1.33358
H    -3.03809  -3.41899   2.22738
C    -2.65372  -3.91465   0.16469
H    -3.34112  -4.74630   0.13292
C    -1.92051  -3.56089  -0.95225
H    -2.00438  -4.08832  -1.88861
C    -1.04671  -2.48117  -0.86576
C    -0.28707  -2.00948  -2.00018
C     0.94831  -0.67244  -3.09858
C     1.81374   0.47796  -3.49043
C     3.06150   0.44598  -2.59703
H     3.60023  -0.49208  -2.71613
H     2.77951   0.55788  -1.55200
H     3.72475   1.26438  -2.86399
C     2.20929   0.38446  -4.96602
H     2.81420  -0.50065  -5.15575
H     2.80075   1.25586  -5.23540
H     1.32946   0.36223  -5.60772
C     1.03337   1.77031  -3.22790
H     0.72291   1.80470  -2.18494
H     0.14843   1.82019  -3.85962
H     1.66337   2.63191  -3.43159
C    -2.59348   1.02388  -1.96312
C    -3.15455  -0.23863  -2.16136
H    -3.23170  -0.92088  -1.32467
C    -3.60991  -0.61346  -3.40973
H    -4.04205  -1.59312  -3.55369
C    -3.50266   0.26352  -4.47853
H    -3.85487  -0.03066  -5.45627
C    -2.94025   1.51599  -4.29084
H    -2.85707   2.20000  -5.12357
C    -2.47816   1.89461  -3.04327
H    -2.03061   2.86822  -2.89915
C    -3.11487   1.08780   0.85771
C    -2.68270   1.04815   2.18217
H    -1.62523   1.16681   2.38729
C    -3.59034   0.86022   3.20612
H    -3.25240   0.83239   4.23170
C    -4.93640   0.70313   2.91324
H    -5.64889   0.55128   3.71065
C    -5.36938   0.74287   1.59824
H    -6.41961   0.62558   1.37229
C    -4.46530   0.93705   0.56836
H    -4.81044   0.96871  -0.45581
C    -1.64003   3.15889  -0.29174
C    -0.39451   3.69660   0.01330
H     0.44698   3.03680   0.18774
C    -0.24756   5.07045   0.10751
H     0.71840   5.48976   0.34552
C    -1.33591   5.90121  -0.09820
H    -1.22054   6.97286  -0.02352
C    -2.57998   5.36261  -0.39334
H    -3.42898   6.01372  -0.54541
C    -2.73782   3.99344  -0.48684
H    -3.70642   3.56606  -0.70943
O     1.35081   0.73450   0.59860
