38

Ru    0.00000   0.00000   0.00000
Cl    0.13481  -2.34414   0.47539
N     1.25754   0.18392   1.58088
C     0.90840   0.42241   2.84066
H    -0.13781   0.62921   3.02714
C     4.35061  -0.62514  -1.97008
O    -1.72169  -0.36396  -2.42780
C     1.97577  -0.42608  -2.23576
H     1.09616  -0.40863  -2.86666
O    -2.55065   0.40609   1.52407
C     3.51732  -0.08448   2.30409
H     4.55199  -0.28160   2.08372
N     1.78178  -0.26085  -0.93108
C     3.22590  -0.60968  -2.79243
H     3.32404  -0.73870  -3.85872
C     5.71519  -0.82926  -2.53609
H     6.47965  -0.71343  -1.77297
H     5.90159  -0.11590  -3.33680
H     5.79373  -1.82938  -2.96087
C     2.55003  -0.05388   1.30281
C     4.16213   0.09690   4.73705
C     3.14641   0.14505   3.61734
C    -1.05681  -0.22432  -1.51212
C     2.85029  -0.26756  -0.11790
C     1.81069   0.41494   3.88782
H     1.48514   0.62170   4.89351
C     4.14035  -0.44665  -0.61047
H     4.98167  -0.44202   0.06317
C    -1.57389   0.25466   0.95600
H     4.02940  -0.86566   5.28552
O     3.88794   1.15807   5.60518
O     5.44609   0.14271   4.18854
H     6.09469   0.23042   4.89625
C     4.51178   1.08140   6.86819
H     4.07618   1.88033   7.46357
H     5.59521   1.23732   6.80681
H     4.31269   0.11485   7.34676
O     0.25733   1.60936  -0.25740
