35

C    -1.40176  -1.79869   2.24131
C    -2.38923  -0.92593   1.89631
C    -1.51299  -2.63957   3.36222
C    -3.56252  -0.79571   2.66006
C     1.40997  -2.03565   2.45910
H     1.47064  -3.05727   2.83501
H     2.28016  -1.81238   1.83735
C    -2.92617   1.66749   0.97511
H    -2.71297   2.31642   0.12375
H    -4.00399   1.55882   1.09995
C     1.27889  -1.04337   3.60589
H     2.12664  -1.22147   4.27064
H     0.37937  -1.27555   4.18157
C    -2.27654   2.19313   2.24779
H    -2.36237   1.44022   3.03427
H    -2.86413   3.05401   2.57582
C     1.25323   0.42730   3.16557
H     1.00606   0.48485   2.08852
H     2.24522   0.86612   3.27368
C    -0.81564   2.61477   2.06346
H    -0.31027   1.94427   1.34370
H    -0.78937   3.61059   1.61940
C     0.24283   1.24968   3.96933
H     0.61808   1.37249   4.98733
H    -0.69757   0.69676   4.04488
C    -0.02477   2.63572   3.37449
H     0.93176   3.12812   3.19386
H    -0.57348   3.23155   4.10707
Cl    2.17906  -0.15975  -0.46802
N    -1.56661  -3.33958   4.26940
N    -4.52451  -0.64559   3.26618
Pd    0.00000   0.00000   0.00000
S     0.04271  -2.01366   1.23414
S    -2.31095   0.03570   0.40900
O    -0.10126   1.27846  -1.03817
