35

C     1.42706  -1.34629  -0.28353
C     1.64658  -2.20176   0.79344
C     2.69154  -3.10165   0.39833
C     3.01357  -2.69443  -0.91657
C     3.99094  -3.32036  -1.66977
H     4.21242  -2.98569  -2.67011
C     4.65768  -4.37988  -1.08437
H     5.42679  -4.89555  -1.63893
C     4.35466  -4.79613   0.21075
H     4.89747  -5.62847   0.63398
C     3.37998  -4.17155   0.96200
H     3.16196  -4.51124   1.96260
C     0.82835  -1.98716   1.94662
C     0.87590  -2.71196   3.14061
H     1.58489  -3.51683   3.23688
C     0.02088  -2.38823   4.17194
H     0.04808  -2.94071   5.09901
C    -0.87724  -1.34007   4.00215
H    -1.56102  -1.05747   4.78521
C    -0.88193  -0.65657   2.80106
H    -1.56728   0.16423   2.63284
C     0.27796   2.83552  -1.81273
H     0.26198   3.27782  -2.80218
H     1.23389   3.02596  -1.33506
H    -0.53417   3.20032  -1.19480
C    -1.51792   0.98870  -2.82543
H    -2.25639   1.42096  -2.16022
H    -1.75334  -0.05084  -3.03136
H    -1.43950   1.54286  -3.75370
N    -0.05970  -0.96386   1.80086
O     1.08650   0.61203  -2.96889
O     2.24086  -1.64105  -1.29887
Pt    0.00000   0.00000   0.00000
S     0.10123   1.03284  -1.99453
O    -1.21340   1.06940   0.32642
