29

Hg    0.00000   0.00000   0.00000
Br    2.32714   0.26008  -0.67153
C    -1.73526  -2.65094  -1.52359
H    -2.55707  -1.95501  -1.43133
C    -1.94885  -4.01848  -1.68228
H    -2.94243  -4.43247  -1.76301
C     0.28013  -4.37690  -1.61762
C     0.50742  -3.00235  -1.55838
H     1.51342  -2.60370  -1.56594
C     1.43836  -5.31767  -1.51957
N    -0.50533  -2.14616  -1.46494
N    -0.94826  -4.87607  -1.69095
O     2.51340  -4.97591  -1.09714
O     1.14839  -6.54349  -1.91936
H     1.91327  -7.13294  -1.81131
C     1.73722  -2.65321   1.51755
H     2.55891  -1.95710   1.42530
C     1.95098  -4.02091   1.67451
H     2.94469  -4.43490   1.75357
C    -0.27810  -4.37927   1.61205
C    -0.50547  -3.00475   1.55430
H    -1.51143  -2.60595   1.56307
C    -1.43635  -5.32018   1.51475
N     0.50722  -2.14845   1.46065
N     0.95040  -4.87850   1.68334
O    -2.51075  -4.97951   1.08943
O    -1.14742  -6.54449   1.92018
H    -1.91236  -7.13403   1.81326
O    -1.57619   0.17297   0.45630
