39

Ti    0.00000   0.00000   0.00000
Cl   -1.33445  -1.69485  -0.03283
Cl   -0.96797   1.14406   1.55068
C     1.68192  -1.10755   1.00519
C     1.93360   0.28819   1.16168
C     2.09809   0.85206  -0.13666
C     1.98690  -0.20016  -1.09288
C     1.73382  -1.41093  -0.38837
C     2.13788   1.01260   2.45853
H     3.20590   1.08494   2.67616
H     1.65378   0.48793   3.27969
H     1.72950   2.02158   2.41356
C     2.41493   2.28545  -0.44237
H     1.93414   2.59481  -1.37091
H     3.49302   2.42173  -0.55193
H     2.06645   2.93611   0.35896
C     2.22770  -0.08705  -2.56790
H     3.27781  -0.29071  -2.78966
H     1.98894   0.91274  -2.92602
H     1.61693  -0.80383  -3.11618
C     1.65372  -2.77070  -1.01547
H     2.65482  -3.11785  -1.28085
H     1.05038  -2.74395  -1.92388
H     1.20857  -3.49006  -0.33160
C     1.49598  -2.10019   2.11691
C     2.84557  -2.68890   2.55131
C     2.67032  -3.71067   3.66930
C     3.93839  -4.34033   4.15893
C     5.16113  -4.10182   3.72428
H     1.01725  -1.61370   2.97293
H     0.83576  -2.90777   1.78542
H     3.49334  -1.87912   2.89133
H     3.31820  -3.16443   1.69025
H     2.17571  -3.23416   4.52218
H     2.00331  -4.50969   3.32898
H     3.78778  -5.06126   4.95347
H     6.01301  -4.60954   4.14382
H     5.37384  -3.39803   2.93862
O    -0.58181   0.81249  -1.31296
