66

Nb    0.00000   0.00000   0.00000
N     1.77350   0.18877   0.92719
N    -0.44983  -1.14540   1.69087
N    -1.06736   1.56961   0.78905
N    -0.82768   0.85566  -1.67671
C     1.88989  -0.94978   1.67781
H     2.86772  -1.32673   1.95506
C     0.76050  -1.62665   2.04515
H     0.84513  -2.53200   2.63971
C     2.99575   0.91414   0.60126
C     3.77935   0.11366  -0.45620
H     4.04922  -0.86755  -0.06939
H     4.69094   0.63711  -0.73536
H     3.16312  -0.02700  -1.34466
C     3.88846   1.15314   1.83142
H     4.36972   0.23659   2.16107
H     3.30081   1.54797   2.65711
H     4.66629   1.87024   1.58062
C     2.60124   2.27751   0.01302
H     1.78473   2.15436  -0.70561
H     3.45400   2.73211  -0.48656
H     2.26713   2.94710   0.80273
C    -1.64079  -1.89986   2.04347
C    -1.91042  -1.81282   3.55489
H    -1.06336  -2.20463   4.11396
H    -2.79393  -2.39178   3.81275
H    -2.06723  -0.77986   3.85604
C    -1.51362  -3.37990   1.63189
H    -1.14632  -3.45002   0.60866
H    -2.48501  -3.86602   1.68713
H    -0.82862  -3.91924   2.28183
C    -2.81720  -1.29402   1.26403
H    -2.65167  -1.42000   0.18803
H    -2.91524  -0.23161   1.47969
H    -3.74514  -1.79492   1.53293
C    -2.05313   1.97560  -0.06723
H    -2.86175   2.61961   0.25071
C    -1.94119   1.57503  -1.35929
H    -2.66762   1.86128  -2.10861
C    -1.03831   2.32380   2.04809
C    -2.35916   2.23269   2.83470
H    -3.20499   2.61154   2.26862
H    -2.27680   2.82150   3.74529
H    -2.56197   1.20190   3.11061
C    -0.74426   3.80169   1.72602
H    -1.58897   4.26988   1.22836
H     0.11622   3.86456   1.06394
H    -0.53256   4.35324   2.63884
C     0.07173   1.79565   2.95803
H    -0.07577   0.73771   3.15783
H     0.06780   2.33854   3.90099
H     1.03575   1.92610   2.47822
C    -0.54547   0.70228  -3.10819
C    -0.87355   1.98155  -3.90349
H    -1.94020   2.09112  -4.07977
H    -0.38243   1.94294  -4.87286
H    -0.51607   2.85763  -3.36477
C    -1.35981  -0.47911  -3.65948
H    -2.42503  -0.30288  -3.51389
H    -1.08320  -1.39255  -3.13459
H    -1.16849  -0.61289  -4.72167
C     0.95336   0.42717  -3.29439
H     1.24549  -0.48180  -2.77383
H     1.53556   1.27126  -2.92176
H     1.17552   0.29378  -4.35140
O     0.33527  -1.43363  -0.74485
