63

Pd    0.00000   0.00000   0.00000
Cl   -0.64864  -0.02155   2.14486
P     0.71904   0.14039  -2.14406
P     2.26495  -0.31022   0.26482
C     1.60425   1.76878  -2.28645
H     0.84529   2.45345  -2.69238
C     2.94240   1.38306  -0.10850
H     3.12681   1.83298   0.87397
H     3.90253   1.28060  -0.62229
C     1.96854   2.27193  -0.88236
H     2.40345   3.27257  -0.97002
H     1.03459   2.36014  -0.29192
C     2.78366   1.69221  -3.24958
H     3.23238   2.67604  -3.37834
H     2.44934   1.33325  -4.22161
H     3.54531   1.00679  -2.88463
C     1.93754  -1.18728  -2.30425
C     1.58828  -1.98358  -3.35981
C     0.51874  -1.42779  -4.17746
C    -0.00964  -0.25516  -3.73208
C     2.80909  -1.29118  -1.17095
C     3.96834  -1.94735  -0.87918
C     4.40811  -1.78168   0.49686
C     3.64951  -0.93885   1.25371
C     2.12313  -3.34488  -3.65899
H     2.85731  -3.31315  -4.46520
H     1.31342  -3.99861  -3.97681
H     2.58439  -3.77282  -2.77528
C     0.05784  -2.11108  -5.42198
H    -0.47301  -3.03044  -5.17456
H     0.90468  -2.37138  -6.05508
H    -0.61908  -1.46607  -5.97664
C    -1.14102   0.49222  -4.29382
C    -2.43082  -0.01711  -4.17326
H    -2.58000  -0.96142  -3.67194
C    -3.50881   0.69482  -4.66400
H    -4.50665   0.29692  -4.55619
C    -3.31213   1.91714  -5.28465
H    -4.15573   2.47352  -5.66529
C    -2.03172   2.42768  -5.41110
H    -1.87376   3.38145  -5.89347
C    -0.95060   1.72214  -4.91433
H     0.04992   2.11823  -5.02150
C     4.82272  -2.69679  -1.85035
H     4.74717  -3.77401  -1.70105
H     5.86657  -2.41859  -1.71084
H     4.53529  -2.46096  -2.86996
C     5.58220  -2.55626   1.00246
H     5.55069  -2.63003   2.08611
H     6.51979  -2.07981   0.71310
H     5.57619  -3.56106   0.58447
C     3.82492  -0.47667   2.61758
C     2.68663  -0.15001   3.35969
H     1.70472  -0.27737   2.91661
C     2.79953   0.31112   4.65591
H     1.90720   0.54858   5.21450
C     4.05033   0.47287   5.23111
H     4.14072   0.83364   6.24492
C     5.18712   0.18573   4.49291
H     6.16508   0.33307   4.92835
C     5.08144  -0.28103   3.19620
H     5.97633  -0.45848   2.62039
O    -1.52161   0.38717  -0.50726
