57

Ir    0.00000   0.00000   0.00000
N     1.92376  -1.38852  -1.89612
C     1.49861  -1.21605  -0.62541
N     2.10623  -2.18929   0.08839
C     2.78472  -2.44987  -1.97402
H     3.23470  -2.75933  -2.89464
C     2.89346  -2.95861  -0.72566
H     3.45989  -3.78902  -0.35732
C     1.14571   1.26450   1.26432
H     2.08251   0.81191   1.58562
C     1.12843   1.77890  -0.05090
H     2.05917   1.69860  -0.61259
C     0.29909   2.96688  -0.48847
H     0.35867   3.03090  -1.57741
H     0.73804   3.88822  -0.08935
C    -1.17991   2.86083  -0.07175
H    -1.34274   3.37264   0.87794
H    -1.79541   3.36614  -0.81870
C    -1.63730   1.42500   0.05751
H    -2.34873   1.09988  -0.69728
C    -1.59833   0.71978   1.24424
H    -2.29916  -0.10258   1.36910
C    -1.04708   1.25457   2.54519
H    -0.98925   0.42449   3.25268
H    -1.74749   1.98529   2.96413
C     0.35088   1.88516   2.39769
H     0.26676   2.95980   2.22878
H     0.89679   1.75135   3.33396
C     1.51352  -0.57721  -3.01167
H     0.62281  -0.02619  -2.69286
H     1.24080  -1.22964  -3.84609
C     2.60978   0.40020  -3.43828
H     3.46281  -0.14998  -3.84221
H     2.95366   0.95341  -2.56217
C     2.08951   1.38967  -4.48358
H     1.76340   0.83560  -5.36832
H     1.22754   1.92225  -4.07905
C     3.15256   2.36670  -4.87397
H     4.03355   1.93397  -5.33074
C     3.07633   3.66916  -4.67906
H     2.21094   4.12333  -4.22456
H     3.86735   4.33912  -4.96955
C     1.84006  -2.47819   1.47347
H     1.51373  -1.55159   1.95184
H     2.75967  -2.82791   1.95184
C     0.73173  -3.52548   1.60909
H     1.06112  -4.46887   1.16796
H    -0.13916  -3.17565   1.05166
C     0.35449  -3.73947   3.07583
H     0.03652  -2.79147   3.51247
H    -0.48936  -4.43291   3.11684
C     1.49041  -4.31041   3.86279
H     1.85604  -5.26834   3.51364
C     2.04822  -3.72965   4.90829
H     1.70233  -2.77750   5.27668
H     2.86450  -4.17937   5.44798
O    -0.96328  -1.21610  -0.56186
