57

Ni    0.00000   0.00000   0.00000
Cl   -1.48522   1.38658  -0.30674
N     1.32102   1.59687   0.99580
C     1.22974   3.92686   0.31085
N    -0.16918  -0.26273   2.09461
C     0.65554   0.38294   2.90015
C     1.37752   1.50083   2.26844
N    -1.58413  -1.61380   0.26956
C    -3.09668  -3.83630   0.94710
H    -3.66660  -4.71804   1.20421
C    -0.01066   4.15297   1.11935
H    -0.46223   5.10513   0.85321
H     0.20819   4.16656   2.18718
H    -0.73185   3.35949   0.92793
C     3.72346   1.15659  -0.44336
H     4.49892   1.10878  -1.20341
H     3.01317   0.34668  -0.60730
H     4.18255   0.98759   0.53164
C    -2.28931  -2.23340  -0.66113
C    -2.38083  -3.15566   1.94921
C    -1.63044  -2.03611   1.53754
C    -0.85112  -1.32460   2.51253
C    -3.05397  -3.37758  -0.34276
H    -3.57873  -3.90040  -1.12666
C     2.16135   2.42397   3.15067
H     2.60116   3.22859   2.56621
H     2.96355   1.86573   3.63296
H     1.52555   2.84576   3.92729
C    -2.25817  -1.67411  -2.01723
C    -2.22219  -0.51444  -4.55130
H    -2.21107  -0.06317  -5.53225
C    -3.36121  -1.78593  -2.86384
H    -4.25312  -2.29288  -2.52668
C    -1.12068  -0.39485  -3.71959
H    -0.24853   0.14920  -4.04997
C    -3.34028  -1.20909  -4.11936
H    -4.20481  -1.29399  -4.76135
C    -1.13861  -0.96937  -2.46350
H    -0.24115  -0.89961  -1.83206
C    -0.80302  -1.77038   3.85021
C    -2.34837  -3.55271   3.31538
H    -2.93566  -4.41128   3.60804
C    -1.58658  -2.89522   4.22765
H    -1.55252  -3.22285   5.25649
C     0.79033  -0.00641   4.24599
H     1.46832   0.51602   4.90149
C     0.04876  -1.06212   4.71811
H     0.12431  -1.36743   5.75206
C     3.02531   2.47743  -0.47526
C     1.86950   2.67747   0.29128
C     3.52226   3.53045  -1.22734
H     4.41433   3.37823  -1.81757
C     1.75508   4.94923  -0.46504
H     1.26057   5.90977  -0.46598
C     2.89104   4.76033  -1.23050
H     3.28354   5.57044  -1.82699
O     1.16310  -1.17015   0.02113
