70

Ni    0.00000   0.00000   0.00000
Cl   -1.90666  -0.21722   0.91368
N    -0.06728  -2.15916  -0.13691
N     0.98050  -0.76281   1.87326
N    -0.67897  -0.57013  -2.09038
C     1.09935  -2.74309   3.25644
C     0.14710  -2.80918   1.00108
C    -0.98753  -1.81076  -2.25419
C    -0.59559   0.32731  -3.14213
C     0.77779  -2.07320   2.05955
C    -0.26208  -4.14370   1.19899
C    -1.57584  -2.35740  -3.49285
C    -0.79369  -2.69906  -1.10017
C     1.55911  -0.04881   2.82315
C     1.77849   1.37625   2.55340
C     0.75546  -4.11802   3.39426
H     1.01558  -4.61446   4.31823
C    -1.32222  -3.99690  -0.96181
H    -1.95855  -4.40677  -1.73069
C     1.94728  -0.64271   4.04310
H     2.39553  -0.02854   4.80846
C     0.08284  -4.78539   2.42014
H    -0.21139  -5.81537   2.56126
C    -1.02148  -4.72449   0.16450
H    -1.38852  -5.73450   0.27952
C     0.14792   0.03770  -4.30114
C     1.09505  -1.12540  -4.39829
H     0.90929  -1.67796  -5.32405
H     0.97167  -1.81094  -3.56176
C     1.06169   3.41832   1.49075
H     0.33320   3.96192   0.90787
C    -1.18290   1.60033  -2.98063
C    -2.61861  -1.67678  -4.11703
H    -2.98796  -0.75801  -3.68686
C     1.70891  -1.97384   4.26433
H     1.97036  -2.43622   5.20573
C     0.84491   2.08866   1.79930
H    -0.09067   1.60622   1.50290
C    -1.11742  -3.55171  -4.04500
H    -0.29463  -4.07694  -3.58117
C     0.12080   0.95123  -5.34471
H     0.65837   0.71969  -6.25265
C     2.92990   2.02398   2.99574
H     3.67586   1.47747   3.55410
C    -1.68710  -4.04827  -5.20288
H    -1.31837  -4.97002  -5.62829
C    -2.72483  -3.36662  -5.81630
H    -3.16853  -3.75684  -6.72001
C    -1.17732   2.48364  -4.04565
H    -1.64907   3.44803  -3.94900
C    -0.57100   2.14224  -5.24241
H    -0.60177   2.82549  -6.07818
C    -3.19095  -2.18271  -5.26836
H    -4.00210  -1.64981  -5.74121
C     2.21391   4.05096   1.92764
H     2.38858   5.08766   1.68062
C     3.14428   3.35236   2.67984
H     4.04645   3.84324   3.01435
C    -1.75056   1.94621  -1.63842
H    -2.62386   1.32451  -1.42045
H    -0.96760   1.66034  -0.89169
C     2.53877  -0.61675  -4.36481
H     3.23108  -1.45147  -4.45043
H     2.71881  -0.10902  -3.41976
H     2.73099   0.07987  -5.17672
C    -2.10677   3.40928  -1.42448
H    -2.41190   3.55914  -0.39096
H    -2.93506   3.70869  -2.06398
H    -1.25195   4.05023  -1.63088
O     1.46202   0.37332  -0.66757
