37

Au    0.00000   0.00000   0.00000
Se    1.80425   1.63375  -0.22056
P     0.61021   2.33588   1.41374
C     0.55752   1.28361   2.89570
C     1.36426   0.15647   2.98091
H     2.02036  -0.09776   2.15661
C     1.31925  -0.63489   4.11347
H     1.93595  -1.51829   4.17580
C     0.47508  -0.29625   5.15855
H     0.42826  -0.92284   6.03605
C    -0.30758   0.84525   5.08436
H    -0.95825   1.11044   5.90402
C    -0.26498   1.64542   3.95786
H    -0.86913   2.53982   3.89515
C    -1.06974   2.81396   0.92537
C    -2.20922   2.14224   1.35260
H    -2.13880   1.32710   2.05901
C    -3.44099   2.51532   0.84477
H    -4.32583   1.98726   1.16448
C    -3.53303   3.54167  -0.08202
H    -4.49675   3.81945  -0.48130
C    -2.39330   4.20652  -0.50884
H    -2.46571   5.00090  -1.23649
C    -1.15767   3.84133  -0.00940
H    -0.25154   4.33624  -0.33961
C     1.35605   3.86992   2.05447
C     2.73879   3.99789   2.02649
H     3.33612   3.21456   1.57581
C     3.33824   5.12582   2.55439
H     4.41256   5.22846   2.52628
C     2.55739   6.12295   3.11672
H     3.02505   7.00546   3.52668
C     1.17809   5.99327   3.15094
H     0.57119   6.77289   3.58682
C     0.57220   4.86736   2.62411
H    -0.50502   4.76954   2.63996
O    -1.28085  -0.94772   0.42866
