29

Au    0.00000   0.00000   0.00000
C     0.13608  -2.33689   1.83880
H    -0.12149  -1.56371   2.54649
C     0.37547  -3.63559   2.24107
H     0.31338  -3.89407   3.28546
C     0.70099  -4.58172   1.27859
H     0.90411  -5.60390   1.55916
C     0.75720  -4.19493  -0.04753
H     0.99608  -4.89697  -0.82973
C     0.49851  -2.87017  -0.38286
C     0.53713  -2.39414  -1.77556
C     1.72760  -2.46333  -2.50482
C     1.79872  -1.95055  -3.78658
H     2.71693  -1.98073  -4.35091
C     0.67068  -1.37393  -4.35162
H     0.73426  -0.96659  -5.34829
C    -0.52114  -1.32000  -3.65239
H    -1.39718  -0.87801  -4.09982
C    -0.58838  -1.82419  -2.36491
H    -1.52029  -1.80620  -1.81923
C     4.02860  -2.98608  -2.31724
Cl    2.24645   0.04350  -0.43271
Cl   -2.22817  -0.16109   0.48363
F     4.85910  -3.51177  -1.42357
F     4.45457  -1.75442  -2.59020
F     4.19938  -3.69270  -3.45451
N     0.20618  -1.97241   0.56222
O     2.79845  -3.06582  -1.83431
O    -0.16202   1.56858  -0.48561
