49

C     0.20757   0.55824  -1.86793
C    -0.13865   1.36240  -3.88212
H    -0.46429   2.01598  -4.66578
C     0.15494  -2.74682  -3.68933
C     0.60235  -3.16739  -4.92558
H     1.62695  -2.97957  -5.20252
C    -0.28056  -3.81881  -5.76857
H     0.05556  -4.15532  -6.73812
C    -1.59827  -4.04049  -5.38036
C    -2.01931  -3.59882  -4.12786
H    -3.04146  -3.76070  -3.82072
C    -1.14694  -2.94977  -3.27359
H    -1.46933  -2.58575  -2.30908
C    -2.56413  -4.72690  -6.29471
H    -3.09493  -5.51618  -5.76640
H    -2.05504  -5.15638  -7.15314
H    -3.30521  -4.01353  -6.65389
C    -1.01916   2.70969  -1.95869
H    -1.23541   2.44429  -0.91989
H    -1.95574   2.88792  -2.48630
H    -0.40666   3.61338  -1.98900
C     1.40008   1.34949   0.88459
H     1.54032   2.21685   0.23834
C     2.05056   0.17283   0.51684
H     2.65255   0.18852  -0.39170
C     2.43455  -0.94419   1.45414
H     3.33553  -0.66127   2.01098
H     2.68337  -1.80746   0.83468
C     1.31203  -1.34561   2.42919
H     1.43741  -2.39849   2.68775
H     1.38314  -0.77299   3.35601
C    -0.06151  -1.14805   1.82981
H    -0.59264  -2.06580   1.57623
C    -0.80358   0.00477   1.99347
H    -1.88892  -0.06821   1.91426
C    -0.33280   1.23381   2.74122
H    -0.35963   1.03147   3.81762
H    -1.04466   2.04027   2.54775
C     1.07539   1.69801   2.32472
H     1.14115   2.78082   2.45254
H     1.83092   1.25232   2.97282
N     0.70012  -0.24848  -2.83097
N     0.47545   0.24458  -4.07752
N    -0.32347   1.60338  -2.55402
O     2.60790  -1.91173  -3.13430
O     1.06805  -2.17158  -1.24387
S     1.27352  -1.87469  -2.62594
Rh    0.00000   0.00000   0.00000
O    -1.45707  -0.51180  -0.58094
