39

Pd    0.00000   0.00000   0.00000
Cl    1.35489   0.68102  -1.61138
N     1.42650  -0.22442   1.51441
N    -1.23903  -0.18769   1.60636
N     1.75368   0.29885   3.64354
H     1.56587   0.57608   4.59195
C     0.83107   0.09898   2.66138
C    -0.60480   0.10567   2.76746
C     2.98704   0.08148   3.09267
C    -2.56788  -0.26223   1.60051
H    -3.02122  -0.49291   0.64320
C     2.76224  -0.27594   1.76436
C     6.19334  -1.00185   0.60031
H     7.21649  -0.93109   0.93282
C     5.37812  -0.09954   2.78879
C     5.14789  -0.58731   1.43830
C     5.94886  -1.51846  -0.65173
H     6.77892  -1.82269  -1.27227
C    -1.31055   0.34752   3.94691
H    -0.78328   0.59237   4.85607
C     3.59377  -1.27242  -0.32983
H     2.56800  -1.38843  -0.66156
C     4.28835   0.19781   3.64783
C     3.83343  -0.70159   0.92347
C     5.78712   0.75053   5.45141
H     5.95438   1.07029   6.46873
C     6.66515   0.07144   3.31770
H     7.52907  -0.11882   2.70235
C    -2.68996   0.27240   3.92978
H    -3.25845   0.45666   4.82813
C     4.64552  -1.67309  -1.11725
H     4.46364  -2.10528  -2.08865
C     4.50968   0.60952   4.96843
H     3.66465   0.82461   5.60727
C    -3.32852  -0.04393   2.73541
H    -4.40247  -0.11603   2.68446
C     6.86751   0.48623   4.61386
H     7.87364   0.60760   4.98625
O    -1.25032   0.13815  -1.06776
