28

Au    0.00000   0.00000   0.00000
Cl   -1.96574  -0.32314   0.97725
Cl   -0.41011  -1.67944  -1.49592
N     1.83099   0.26363  -0.89572
C     2.06684   1.32275  -1.66494
H     1.30238   2.08451  -1.68121
C     3.22670   1.44740  -2.40083
H     3.38429   2.32073  -3.01192
C     4.16615   0.42502  -2.34048
H     5.07841   0.48397  -2.91447
C     3.91808  -0.66246  -1.52737
H     4.62691  -1.46999  -1.43361
C     2.73454  -0.71814  -0.79219
C     2.43187  -1.83651   0.10288
C     2.06091  -1.59764   1.42878
H     2.10481  -0.59497   1.82964
C     1.70867  -2.65185   2.24722
H     1.42540  -2.45704   3.27099
C     1.70093  -3.95927   1.76892
C     2.09758  -4.18906   0.45673
H     2.10310  -5.19730   0.06981
C     2.47007  -3.14558  -0.36808
H     2.74259  -3.33547  -1.39519
C     1.27157  -5.08042   2.65951
H     1.85876  -5.08495   3.57658
H     1.38373  -6.04101   2.16419
H     0.22616  -4.95235   2.93741
O     0.34238   1.27225   0.99330
