45

Pd    0.00000   0.00000   0.00000
P    -0.22771  -2.23159  -0.00027
P     0.14444   2.23704  -0.00028
N     2.84042  -0.21898   1.13263
C     2.47925  -0.13488   2.51576
C     4.24157  -0.27924   0.77060
C     0.50624  -3.13762   1.41784
C    -1.93649  -2.88566  -0.00025
C    -0.71033   3.00558  -1.42460
C     1.74265   3.14687  -0.00025
B     2.00538  -0.17736  -0.00023
H     2.91535   0.75243   2.99457
H     1.38509  -0.06690   2.57100
H     2.81193  -1.01643   3.07953
H     4.78710   0.58531   1.17559
H     4.71283  -1.18647   1.17534
H     0.32093  -4.20755   1.32872
H     1.57716  -2.94760   1.44195
H     0.06440  -2.76960   2.34313
H    -1.93720  -3.97588  -0.00024
H    -2.45733  -2.50776   0.87873
H    -0.71755   4.09143  -1.33046
H    -0.20538   2.71911  -2.34738
H    -1.73106   2.62461  -1.44776
H     1.57402   4.22310  -0.00024
H     2.31435   2.86663  -0.88221
C     0.50624  -3.13764  -1.41837
H     0.32093  -4.20757  -1.32925
H     1.57716  -2.94762  -1.44247
H     0.06440  -2.76962  -2.34365
H    -2.45734  -2.50777  -0.87921
C    -0.71033   3.00555   1.42407
H    -0.71755   4.09141   1.32994
H    -0.20539   2.71908   2.34685
H    -1.73106   2.62458   1.44724
H     2.31433   2.86662   0.88172
C     4.24155  -0.27924  -0.77110
N     2.84040  -0.21897  -1.13311
C     2.47921  -0.13487  -2.51624
H     2.91531   0.75244  -2.99506
H     1.38505  -0.06690  -2.57146
H     2.81189  -1.01642  -3.08002
H     4.78709   0.58530  -1.17610
H     4.71282  -1.18647  -1.17585
O    -1.63155   0.24605  -0.00025
