33

C     1.08460   0.84288   1.46353
C     1.79392   2.25718  -0.35498
C     2.52253   3.32732  -0.88644
H     3.16297   3.90642  -0.24013
C     2.39564   3.61743  -2.22706
H     2.94443   4.43888  -2.66084
C     1.54851   2.83746  -3.00791
H     1.41834   3.03447  -4.05855
C     0.86443   1.79718  -2.41472
H     0.19775   1.16984  -2.99458
C    -1.39763   1.18186   0.33866
C    -0.79171  -1.24658   1.12618
C     2.60076  -1.29317  -2.07580
H     3.37019  -2.05932  -2.17311
H     3.05850  -0.30679  -2.16489
H     1.85879  -1.41792  -2.86529
C     3.20325  -1.46794   0.69330
H     3.89352  -2.27166   0.43693
H     2.84023  -1.60465   1.71207
H     3.72396  -0.51181   0.63710
C     1.32408  -3.23432  -0.46642
H     0.54196  -3.40120  -1.20818
H     0.94934  -3.51919   0.51760
H     2.19910  -3.83659  -0.71368
N     0.98327   1.50179  -1.11775
N     1.86220   1.90355   0.95718
H     2.44332   2.43613   1.59672
O     1.18625   0.55728   2.62785
O    -2.23893   1.91449   0.58689
O    -1.28558  -2.00050   1.82702
P     1.77366  -1.46631  -0.45191
Ru    0.00000   0.00000   0.00000
O    -0.66127  -0.67872  -1.35076
