47

C     1.47996   0.60188  -2.51266
H     1.10079  -0.38857  -2.74445
C     2.31449   1.28715  -3.37245
H     2.62038   0.83588  -4.30166
C     2.74728   2.55499  -3.00700
H     3.41297   3.11796  -3.64281
C     2.32202   3.08784  -1.80674
H     2.64328   4.06499  -1.48710
C     1.46119   2.34763  -0.99620
C     1.54022   1.74772   2.80676
C     2.79470   2.34925   2.79156
H     3.12862   2.88022   1.90986
C     3.60490   2.26654   3.91001
H     4.57542   2.74051   3.90553
C     3.17677   1.57229   5.03058
H     3.81399   1.51186   5.90007
C     1.94177   0.94060   5.03236
H     1.62094   0.38182   5.89846
C     1.12507   1.01741   3.92028
H     0.17170   0.50513   3.88543
C    -1.14605   2.41271   1.88333
C    -2.16561   2.28025   0.93977
H    -1.96452   1.75215  -0.00160
C    -3.42297   2.78686   1.20451
H    -4.21262   2.68195   0.47617
C    -3.67238   3.41430   2.41615
H    -4.65687   3.80395   2.62741
C    -2.66871   3.52487   3.36345
H    -2.87146   3.99752   4.31310
C    -1.40449   3.02446   3.10319
H    -0.62955   3.09628   3.85331
C     0.01177   6.82404   0.55342
H    -0.29057   7.85804   0.58137
C     0.35635   6.14178   1.71185
H     0.33779   6.63933   2.67015
C     0.73306   4.81515   1.62911
H     1.03271   4.26367   2.50465
C     0.74194   4.21000   0.37208
C     0.07810   6.13573  -0.64603
H    -0.16296   6.61171  -1.58693
N     1.04480   2.84778   0.24005
N     1.06034   1.11784  -1.35600
N     0.42842   4.86592  -0.73745
P     0.43920   1.68404   1.37335
Cl   -0.69184  -1.51675  -1.51252
Pd    0.00000   0.00000   0.00000
O    -0.76061  -0.80807   1.22106
