58

C    -1.50759  -4.34043  -1.57206
H    -2.35739  -4.06492  -2.18061
C    -0.30736  -1.24313  -2.76600
C    -0.33087   0.05879  -3.28984
C     0.28388   0.31556  -4.50684
H     0.25160   1.31688  -4.91419
C     0.94193  -0.68212  -5.20535
H     1.41479  -0.45938  -6.15009
C     0.99640  -1.95820  -4.67663
H     1.51687  -2.74484  -5.20282
C     0.37873  -2.23042  -3.46873
H     0.42853  -3.23230  -3.06796
C    -0.99955   1.19342  -2.55858
H    -1.13864   2.03920  -3.25219
H    -1.98873   0.87394  -2.21137
C     1.08840   2.11006  -1.75397
H     1.63287   1.32494  -2.27619
H     1.63278   2.36522  -0.84627
H     1.03038   2.99620  -2.40062
C    -0.95797   2.67234  -0.66904
H    -1.05978   3.58335  -1.27411
H    -0.41671   2.90892   0.24586
H    -1.95317   2.31637  -0.40266
C    -2.82255  -1.43444  -1.59967
C    -3.72745  -1.07336  -0.59815
C    -5.06030  -0.87129  -0.91139
H    -5.75729  -0.59076  -0.13441
C    -5.49991  -1.03015  -2.21616
H    -6.54094  -0.87338  -2.45593
C    -4.60693  -1.39659  -3.20922
H    -4.95168  -1.52937  -4.22409
C    -3.26985  -1.59004  -2.90676
H    -2.57178  -1.85805  -3.68761
C    -3.17512  -0.96344   0.79183
H    -2.57106  -0.04991   0.87252
H    -3.97736  -0.91828   1.54263
C    -3.05085  -3.32552   1.10290
H    -3.71838  -3.30686   1.97443
H    -2.37296  -4.17129   1.20119
H    -3.65392  -3.46593   0.20690
C    -1.45195  -1.92479   2.17466
H    -0.79271  -1.06462   2.03659
H    -0.83474  -2.81127   2.30685
H    -2.05263  -1.77250   3.07845
C    -0.73370  -3.35552  -0.96998
C     0.36149  -3.71316  -0.19055
H     0.94935  -2.92995   0.27170
C     0.68482  -5.04640  -0.01707
H     1.53661  -5.32279   0.58694
C    -0.08909  -6.02741  -0.61701
H     0.15900  -7.06973  -0.48037
C    -1.18165  -5.67331  -1.39260
H    -1.78212  -6.44041  -1.86020
Cu    0.00000   0.00000   0.00000
N    -0.23661   1.62899  -1.38519
N    -2.28303  -2.09630   0.99557
P    -1.06969  -1.57380  -1.10914
O     0.83488   0.62154   1.28030
