59

Re    0.00000   0.00000   0.00000
C    -4.00766   2.30079   6.39726
H    -4.87945   1.81745   6.81509
C    -2.44701   4.09474   6.27797
H    -2.06980   5.05458   6.60641
N    -1.76287   3.51684   5.30386
C    -2.16998   2.34733   4.85693
H    -1.58709   1.90654   4.06025
C    -3.29296   1.68230   5.36845
C    -3.67843   0.42734   4.86166
C    -4.01565  -0.65449   4.44340
C    -4.33665  -1.91865   3.90284
C    -3.61743  -2.37451   2.78742
H    -2.86303  -1.72575   2.37021
C    -3.91026  -3.62775   2.27729
C    -4.91618  -4.37141   2.87999
H    -5.18340  -5.35251   2.51750
C    -5.59155  -3.81900   3.97427
C    -6.63425  -4.54563   4.59553
C    -7.53168  -5.16105   5.11923
C    -8.58178  -5.87920   5.72298
C    -8.99561  -7.11659   5.21496
H    -8.51204  -7.54346   4.34560
N    -9.97192  -7.82537   5.74194
C   -10.59601  -7.34564   6.80561
H   -11.39030  -7.96588   7.19909
C    -9.24766  -5.38214   6.84683
H    -8.95672  -4.43043   7.26730
C    -3.17932  -4.19456   1.07520
H    -3.02540  -5.27048   1.19743
H    -3.77350  -4.01588   0.17319
C    -0.76495  -3.73347   1.55834
H    -0.62268  -4.53208   2.25482
C     0.05180  -2.69808   1.14973
C     1.37140  -2.22312   1.50876
C     2.23993  -2.92662   2.33692
H     1.94413  -3.88560   2.73209
C     3.46612  -2.36797   2.64453
H     4.15681  -2.88418   3.29346
C     3.78615  -1.13046   2.10468
H     4.73021  -0.65652   2.31884
C     2.86721  -0.49750   1.28562
H     3.08709   0.46816   0.84969
C    -3.57513   3.53033   6.85790
H    -4.10009   4.04159   7.65044
N    -5.30048  -2.62546   4.47866
C   -10.27215  -6.13067   7.39511
H   -10.81064  -5.78086   8.26230
N    -1.91750  -3.54305   0.88391
N    -1.83428  -2.47227   0.11411
N    -0.67294  -1.95829   0.26646
N     1.68281  -1.02075   0.99122
C    -1.71950   0.67580  -0.62527
O    -2.77618   1.01864  -0.88908
C     0.73635  -0.23652  -1.78089
O     1.18877  -0.40786  -2.82279
C     0.70325   1.80345   0.21915
O     1.11965   2.83824   0.47064
O    -0.54442   0.05827   1.55651
