58

Re    0.00000   0.00000   0.00000
O     1.99534  -2.17361  -0.93570
O    -1.86709  -2.09769   1.30196
O     1.50837   0.69151   2.60326
O   -11.30121   8.55953   8.48872
H   -11.87771   9.33965   8.46996
O   -10.36510   9.53160   6.71547
N     0.93373   1.59992  -1.10437
N    -1.36277   1.62654   0.20045
C     1.27355  -1.38717  -0.52541
C    -1.13628  -1.33499   0.86158
C     0.95377   0.41976   1.63642
C     2.07351   1.55241  -1.78643
H     2.66643   0.65377  -1.67409
C     2.50176   2.57820  -2.60929
H     3.43151   2.48112  -3.14572
C     1.71607   3.71769  -2.73479
H     2.02112   4.53117  -3.37437
C     0.53296   3.78171  -2.02724
H    -0.11764   4.63976  -2.09394
C     0.16611   2.70365  -1.22153
C    -1.07184   2.67261  -0.48005
H    -1.74095   3.52854  -0.54358
C    -2.60562   1.59142   0.92229
H    -3.14622   0.69063   0.61072
H    -3.22020   2.46705   0.68026
C    -2.36118   1.51726   2.43549
H    -3.31989   1.35403   2.92655
H    -1.72698   0.65060   2.64167
C    -1.68620   2.77037   2.99604
H    -0.80144   2.99504   2.39321
H    -1.33591   2.54952   4.00606
C    -2.58714   4.00599   3.05241
H    -3.05799   4.17665   2.08175
H    -1.96418   4.87797   3.26616
C    -3.67034   3.90847   4.12448
H    -3.19783   3.75338   5.09692
H    -4.31333   3.04846   3.92872
C    -4.53394   5.16646   4.17718
H    -3.89838   6.03565   4.36225
H    -5.01880   5.31337   3.20887
C    -5.60130   5.08201   5.26541
H    -5.11648   4.95885   6.23658
H    -6.22292   4.20008   5.09355
C    -6.48722   6.32491   5.29567
H    -5.86551   7.20829   5.45700
H    -6.97886   6.44107   4.32724
C    -7.54757   6.24868   6.39123
H    -7.05646   6.15064   7.36223
H    -8.15931   5.35631   6.23913
C    -8.44408   7.48323   6.39720
H    -7.83823   8.37929   6.54188
H    -8.94293   7.58230   5.43172
C    -9.49932   7.41291   7.49590
H    -9.03486   7.34660   8.48224
H   -10.12682   6.52656   7.37606
C   -10.40451   8.61685   7.49159
O    -0.79968  -0.26913  -1.41795
