44

Pd    0.00000   0.00000   0.00000
S    -1.80516  -0.99972   0.96089
O     1.55177   0.92633  -0.88800
N    -1.28050   0.80053  -1.30709
N    -2.61881   0.61917  -1.09091
N    -4.29364  -0.23055   0.24653
H    -4.98260   0.09754  -0.41249
H    -4.53737  -1.04571   0.78485
C    -0.96886   1.50537  -2.35722
H    -1.79697   1.84919  -2.97714
C     0.33455   1.87283  -2.75535
C     1.51620   1.56822  -1.99278
C     2.75503   2.04394  -2.51102
H     3.63627   1.81564  -1.93111
C     2.83348   2.74026  -3.68112
H     3.79444   3.07568  -4.04342
C     1.67713   3.02683  -4.42273
H     1.75177   3.57804  -5.34719
C     0.46538   2.60302  -3.96019
H    -0.43398   2.81934  -4.52002
C    -2.99652  -0.09159  -0.11322
C    -1.92060   0.02396   2.47540
H    -2.95119  -0.02739   2.83001
H    -1.25942  -0.48636   3.17770
C    -1.46804   1.46282   2.26221
H    -2.09378   1.94273   1.49901
H    -0.40911   1.46511   1.92223
C    -1.56288   2.26076   3.56253
H    -2.59855   2.27013   3.91206
H    -0.95507   1.77248   4.32633
C    -1.07654   3.69567   3.37331
H    -1.69615   4.19465   2.62422
H    -0.05135   3.67934   2.99772
C    -1.12377   4.48682   4.67814
H    -0.49673   3.99034   5.42193
H    -2.14731   4.49526   5.06124
C    -0.64268   5.92419   4.49523
H    -1.27736   6.42718   3.76192
H     0.37530   5.91451   4.10015
C    -0.66952   6.70033   5.80611
H    -1.67986   6.73748   6.20801
H    -0.32275   7.71970   5.65462
H    -0.02599   6.22508   6.54312
O     1.01195  -0.65023   1.12944
