58

Ir    0.00000   0.00000   0.00000
I     1.89570  -1.93518  -0.36420
C     1.47582   1.47560  -0.04078
C    -1.25487  -1.41967   0.88451
C    -1.91789  -2.44151   2.76775
H    -1.94678  -2.67114   3.81241
C    -2.62706  -2.95462   1.73420
H    -3.38368  -3.71186   1.71894
C    -0.11821  -0.67891   2.83760
C     0.51143   0.12796   1.90068
C     1.50877   1.01198   2.28836
C     1.88366   1.10061   3.61966
H     2.65677   1.78081   3.94394
C     1.23877   0.28672   4.54229
H     1.52463   0.34926   5.58139
C     0.24023  -0.60601   4.17457
H    -0.23616  -1.22360   4.92101
C     2.96780   2.69559   1.10449
H     3.51594   3.04893   1.95284
C     3.03424   3.05828  -0.19906
H     3.64989   3.78495  -0.68812
C    -0.70953  -0.40284  -3.04132
C    -0.97959  -0.70064  -4.41432
H    -1.35486   0.19000  -4.91871
H    -1.72816  -1.49068  -4.47996
H    -0.06294  -1.03447  -4.90128
C     1.88844   2.37028  -2.30089
H     2.18662   3.35985  -2.65757
H     0.81789   2.24153  -2.48611
C     2.67484   1.27929  -3.03065
H     3.74232   1.40991  -2.84027
H     2.38515   0.30739  -2.62776
C     2.41186   1.30528  -4.53246
H     1.33388   1.26971  -4.70762
H     2.78029   2.24362  -4.95370
C     3.08565   0.13183  -5.23257
H     4.16432   0.18418  -5.10811
H     2.86290   0.13803  -6.29720
H     2.74617  -0.81110  -4.80907
C    -2.74177  -2.56904  -0.72082
H    -3.25551  -3.53392  -0.70114
H    -1.90791  -2.63093  -1.42687
C    -3.70830  -1.46303  -1.15388
H    -4.04350  -1.67637  -2.17112
H    -3.17692  -0.51113  -1.16692
C    -4.91752  -1.33949  -0.23090
H    -5.48316  -2.27546  -0.23799
H    -4.57838  -1.15765   0.79084
C    -5.81746  -0.18754  -0.65823
H    -5.26853   0.75009  -0.61647
H    -6.67743  -0.11093   0.00205
H    -6.17567  -0.33569  -1.67492
N     2.00973   1.72738   1.18891
N     2.11046   2.30906  -0.87999
N    -1.08186  -1.50356   2.23530
N    -2.20485  -2.32315   0.59322
N    -0.49202  -0.17032  -1.93500
O    -1.14194   1.16941   0.22576
