52

Ir    0.00000   0.00000   0.00000
I     1.03976  -2.37655  -0.82157
N     1.60107   1.42659  -1.96263
N    -0.17878   0.99765  -3.09376
N     1.65876  -0.04908   2.38565
N    -0.09992  -1.08822   3.06353
N    -1.86944  -0.69637  -0.21770
C     0.37961   0.82467  -1.88575
C     0.43042  -0.48773   1.98713
C     1.87711  -0.36886   3.69385
H     2.77889  -0.11859   4.21280
C     0.76903  -1.01877   4.12227
H     0.54364  -1.42880   5.08410
C     2.45718   0.63036   1.45260
C     1.81377   0.74524   0.22819
C     2.42662   1.40476  -0.82795
C     3.69424   1.94389  -0.67448
H     4.18955   2.45910  -1.48367
C     4.32421   1.80935   0.55595
H     5.31208   2.22540   0.68398
C     3.72519   1.16155   1.62859
H     4.24409   1.08135   2.57192
C     1.78733   1.97027  -3.19997
H     2.67837   2.49294  -3.47927
C     0.66592   1.70452  -3.91087
H     0.41579   1.96183  -4.91847
C    -2.99714  -0.91354  -0.30579
C    -4.39863  -1.17390  -0.42289
H    -4.75784  -1.68576   0.47013
H    -4.58649  -1.79973  -1.29550
H    -4.93035  -0.22842  -0.53231
C    -1.50220   0.53733  -3.45892
H    -1.80609  -0.16108  -2.67232
C    -1.46949  -0.20898  -4.78923
H    -1.25516   0.46463  -5.61542
H    -2.43525  -0.67269  -4.97106
H    -0.71170  -0.98910  -4.76412
C    -2.46957   1.71965  -3.48102
H    -2.17139   2.44456  -4.23520
H    -2.48046   2.21387  -2.51207
H    -3.47484   1.37595  -3.70925
C    -1.42121  -1.67922   3.10364
H    -1.74454  -1.76557   2.06084
C    -1.37394  -3.07453   3.71852
H    -1.14559  -3.03066   4.78025
H    -0.62060  -3.68005   3.22035
H    -2.33912  -3.55913   3.59903
C    -2.37608  -0.74890   3.84996
H    -3.37984  -1.16503   3.85099
H    -2.40288   0.22647   3.36914
H    -2.05443  -0.61731   4.88077
O    -0.64760   1.43533   0.49290
