52

Pt    0.00000   0.00000   0.00000
C     1.74515  -2.71901  -0.45831
H     1.68364  -2.81151   0.61745
C     2.26348  -3.74270  -1.23611
H     2.60901  -4.65130  -0.77000
C     2.32646  -3.57533  -2.61235
H     2.72606  -4.35206  -3.24597
C     1.85833  -2.39516  -3.16095
H     1.87241  -2.21097  -4.22329
C     1.33990  -1.42865  -2.30323
C     0.79870  -0.18798  -2.80402
C     0.35752   1.45030  -4.04485
C     0.39910   2.33996  -5.18469
C    -0.19503   3.59916  -5.10003
H    -0.71971   3.88229  -4.20272
C    -0.06527   4.44580  -6.18691
H    -0.50366   5.43292  -6.16480
C     0.64641   4.00968  -7.29397
H     0.78257   4.64581  -8.15448
C     1.18680   2.72926  -7.27389
H     1.74613   2.34321  -8.11477
C    -0.00401  -0.79959   1.89453
H     1.01491  -0.95334   2.25774
H    -0.50907  -1.76670   1.84123
H    -0.53328  -0.18400   2.62296
C    -1.32485   1.44492   0.60806
H    -0.97289   2.07940   1.42061
H    -2.26335   0.97474   0.90753
H    -1.49728   2.05446  -0.28292
C     1.66736   1.17457   0.57041
H     1.44691   1.75479   1.46587
H     2.47392   0.46568   0.77704
C     1.99329   2.03495  -0.56929
C     1.41061   3.30207  -0.71117
H     0.75400   3.66299   0.06570
C     1.64379   4.07649  -1.82373
H     1.18107   5.04566  -1.92309
C     2.47288   3.60924  -2.84547
C     3.08801   2.36246  -2.70507
H     3.73801   2.01614  -3.49580
C     2.86521   1.60019  -1.58084
H     3.36020   0.64224  -1.47600
C     2.70419   4.38059  -4.07134
N     1.29523  -1.58534  -0.97268
N     0.07841   0.65571  -2.10844
N    -0.20432   1.69147  -2.89357
N     1.06473   1.90956  -6.25184
O     0.99370   0.26349  -4.04686
O     3.29823   3.98023  -5.04676
O     2.17505   5.62077  -4.03849
H     2.38310   6.07955  -4.86647
O    -1.20921  -0.99828  -0.51356
