64

Ir    0.00000   0.00000   0.00000
N     1.13182  -1.74553   0.67274
C     1.32065   0.46258  -1.58835
H     2.32231   0.09403  -1.37558
N     3.62764  -2.77318   0.31436
C     1.28594   1.91314  -2.03117
H     0.84518   1.97309  -3.02708
H     2.30736   2.29027  -2.10855
N     1.26312  -4.10606  -0.79079
C     0.50050   2.79655  -1.04325
H     1.19480   3.22659  -0.31947
H     0.02569   3.62989  -1.57107
C    -0.54982   2.02266  -0.27568
H    -0.81125   2.47946   0.67734
C    -1.51417   1.19867  -0.87914
H    -2.44442   1.04992  -0.33404
C    -1.63260   1.04315  -2.38372
H    -1.31095   1.96904  -2.86177
H    -2.68056   0.89106  -2.64605
C    -0.80652  -0.14702  -2.90716
H    -1.44905  -1.02836  -2.95791
H    -0.45546   0.05460  -3.92528
C     0.36998  -0.48228  -2.01428
H     0.71378  -1.50805  -2.14125
C     2.15327  -1.38058   1.65877
H     1.69399  -1.25533   2.64020
H     2.58701  -0.42267   1.36165
C     3.26549  -2.44807   1.68564
H     4.11632  -2.06909   2.26590
H     2.91410  -3.34877   2.19043
C     3.65476  -4.18676  -0.00208
H     4.26898  -4.76587   0.71044
H     4.10545  -4.28697  -0.98710
C     2.25896  -4.85109  -0.03364
H     2.40370  -5.85955  -0.43970
H     1.90284  -4.98304   0.99045
C     0.04255  -3.82427  -0.04646
H    -0.44269  -4.73372   0.34338
H    -0.65366  -3.33933  -0.73488
C     0.30386  -2.87627   1.12400
H    -0.64532  -2.50638   1.51795
H     0.80184  -3.41265   1.93646
C     4.75428  -1.99024  -0.18333
H     4.62230  -0.98949   0.24400
C     4.70301  -1.84482  -1.70520
H     5.01791  -2.75725  -2.20543
H     5.37083  -1.04590  -2.01783
H     3.69389  -1.59870  -2.02512
C     6.12703  -2.51942   0.25464
H     6.16371  -2.65178   1.33402
H     6.90291  -1.81339  -0.02930
H     6.34274  -3.47476  -0.21767
C     0.98941  -4.58965  -2.14203
H     0.28045  -3.86925  -2.57097
C     2.24519  -4.56299  -3.00987
H     2.73032  -3.59497  -2.93626
H     1.97102  -4.73456  -4.04811
H     2.94667  -5.33892  -2.71420
C     0.33261  -5.97707  -2.20696
H     0.99117  -6.74541  -1.80834
H     0.11099  -6.22570  -3.24137
H    -0.59805  -5.99190  -1.64548
H     1.68279  -2.13482  -0.11031
O    -0.69224  -0.00513   1.49776
