48

C     0.38097   1.67412  -1.00277
C     0.87643   2.88690  -0.54028
H     0.96601   3.06140   0.52184
C     1.26059   3.88109  -1.42576
H     1.63850   4.81972  -1.04607
C     1.17507   3.67821  -2.79523
H     1.49018   4.45331  -3.47895
C     0.68289   2.48573  -3.28521
H     0.61454   2.33478  -4.35300
C     0.27880   1.48542  -2.40163
C    -0.35955   0.24227  -2.80985
C    -0.62735  -0.14242  -4.11828
H    -0.24939   0.44815  -4.93655
C    -1.35458  -1.30024  -4.37635
C    -1.85659  -2.00491  -3.28121
H    -2.50899  -2.85143  -3.42654
C    -1.56309  -1.57889  -1.99469
C    -2.17645  -2.22209  -0.82184
C    -2.25891  -3.60581  -0.70925
H    -1.84561  -4.23167  -1.48672
C    -2.83407  -4.17993   0.41001
H    -2.88337  -5.25571   0.49570
C    -3.34239  -3.38007   1.42004
H    -3.79078  -3.83219   2.29266
C    -3.28147  -2.00040   1.30740
H    -3.68507  -1.37479   2.08914
C    -2.70015  -1.41972   0.19507
H    -2.68069  -0.33728   0.09538
C    -1.61985  -1.74486  -5.74918
C    -1.90351  -0.82286  -6.75472
H    -1.95397   0.22931  -6.51605
C    -2.15189  -1.24779  -8.04623
H    -2.37742  -0.52339  -8.81496
C    -2.11398  -2.59735  -8.35547
H    -2.30467  -2.92747  -9.36567
C    -1.83101  -3.52181  -7.36366
H    -1.79662  -4.57512  -7.60054
C    -1.59008  -3.10069  -6.06953
H    -1.35240  -3.82446  -5.30350
C     0.37280  -2.46227   1.85468
C     0.75001  -3.18375   3.02842
H     1.25140  -2.49612   3.70996
H     1.42814  -3.99487   2.76565
H    -0.13832  -3.59048   3.51065
N    -0.77368  -0.52060  -1.77091
N     0.06237  -1.88184   0.91414
Pt    0.00000   0.00000   0.00000
O     0.64603   0.50837   1.43063
