51

Rh    0.00000   0.00000   0.00000
P     1.73892   0.85330   1.09970
N     0.13377   1.52576  -1.10103
N    -1.49402  -0.44998  -1.23134
C     1.62412   1.17218   2.95443
C     0.14363   1.51698   3.15757
H    -0.09360   1.56344   4.21915
H    -0.48133   0.74467   2.69753
H    -0.11279   2.47839   2.71363
C     1.91559  -0.13778   3.68420
H     1.56767  -0.07879   4.71478
H     2.98179  -0.35005   3.70407
H     1.39501  -0.95939   3.19333
C     2.50146   2.29715   3.49784
H     2.30424   3.24322   2.99886
H     3.55764   2.06777   3.39566
H     2.28988   2.43030   4.55862
C     3.42674   0.19568   0.56381
C     3.48746  -1.29061   0.91905
H     4.29331  -1.77527   0.36914
H     2.54762  -1.77571   0.65416
H     3.66321  -1.44651   1.97877
C     3.39572   0.30844  -0.96477
H     3.41838   1.34382  -1.29956
H     2.48496  -0.16596  -1.34804
H     4.25319  -0.20559  -1.39710
C     4.63968   0.93033   1.12405
H     4.76655   0.72312   2.18354
H     4.56351   2.00683   0.98379
H     5.53797   0.58861   0.61013
C     1.72804   2.57871   0.39484
H     1.13928   3.19744   1.07893
H     2.71555   3.03248   0.29662
C     1.00297   2.54094  -0.91529
C     1.18231   3.52077  -1.86895
H     1.89234   4.31509  -1.69490
C     0.44303   3.48414  -3.05115
H     0.58276   4.23934  -3.80818
C    -0.47506   2.47030  -3.22188
H    -1.06895   2.42135  -4.11987
C    -0.62130   1.50029  -2.23080
C    -1.56849   0.40391  -2.28109
C    -2.51873   0.22303  -3.28920
H    -2.56373   0.90849  -4.12011
C    -3.40059  -0.83499  -3.21286
H    -4.14105  -0.98826  -3.98333
C    -3.31742  -1.69653  -2.12419
H    -3.98801  -2.53473  -2.02501
C    -2.35197  -1.46583  -1.16384
H    -2.24672  -2.12210  -0.30920
O    -0.12366  -1.41112   0.84614
