21

Re    0.00000   0.00000   0.00000
O    -3.03942  -0.61759   0.16507
C    -1.91591  -0.53144   0.12036
O     0.64031  -1.84435  -2.41958
C     0.40456  -1.24667  -1.48267
N     0.61314  -1.03732   1.28882
O     1.01084  -1.77192   2.08626
N     1.86053   1.15273  -0.09231
C     0.53384   2.51582   1.46005
C     1.80136   2.28574   0.61367
C     2.81915   3.22719   0.59740
H     2.69307   4.11675   1.19490
C     3.93533   2.99034  -0.18309
H     4.74160   3.70621  -0.22781
C     3.99377   1.81003  -0.91260
H     4.84251   1.57953  -1.53596
C     2.93878   0.92034  -0.84026
H     2.95300  -0.00639  -1.39950
O    -0.35494   1.61511   1.32781
O     0.47698   3.49276   2.17311
O    -0.53003   0.95589  -1.23606
