42

Re    0.00000   0.00000   0.00000
S     0.44494  -1.47924   2.08716
C    -1.28928  -2.41674  -1.79530
C    -1.16964  -1.89977  -3.08016
H    -0.66046  -0.96252  -3.24437
C    -1.72161  -2.63295  -4.10836
H    -1.65239  -2.26340  -5.11960
C    -2.37117  -3.84781  -3.87621
H    -2.78967  -4.38706  -4.71227
C    -2.48906  -4.37873  -2.60791
H    -2.98755  -5.32157  -2.44197
C    -1.93752  -3.64699  -1.56707
C    -2.40684  -4.97564   0.52078
H    -2.95812  -4.62153   1.39315
H    -1.61806  -5.65846   0.84968
H    -3.08992  -5.51961  -0.12771
C    -1.19220  -2.80678   0.32066
C    -0.90094  -2.67398   1.76886
H    -0.65001  -3.62863   2.23087
H    -1.76390  -2.23391   2.27823
C     1.98808  -2.52744   1.99380
C     2.01667  -3.35558   0.71960
H     2.98186  -3.85200   0.63125
H     1.88230  -2.72307  -0.15637
H     1.24524  -4.12456   0.71934
C     2.03991  -3.40596   3.23730
H     2.98266  -3.94933   3.26277
H     1.23380  -4.13741   3.25245
H     1.96920  -2.79735   4.13569
C     3.12477  -1.51205   2.01396
H     4.08495  -2.02288   1.99024
H     3.07619  -0.90566   2.91589
H     3.06185  -0.84828   1.15327
C    -0.73548   1.04904  -1.46024
C     0.66299   1.60555   0.87556
C     1.64123  -0.31502  -0.97455
N    -0.84538  -1.92812  -0.59066
N    -1.85805  -3.86615  -0.20764
O     2.60544  -0.49078  -1.58361
O     1.00072   2.51038   1.48561
O    -1.24403   1.67605  -2.27507
O    -1.40711   0.13579   0.85095
