53

Ni    0.00000   0.00000   0.00000
Cl    1.51202  -1.46820   0.08849
O    -2.82079   2.24967  -1.83730
O     2.77667   2.35755   1.76582
N    -0.05553   0.02532  -2.29370
N    -1.43727   1.34275  -0.33325
N     0.05341   0.09685   2.29179
N     1.40872   1.38091   0.29152
C     0.45596  -0.84565  -3.15059
C    -0.14702  -1.15804  -4.36114
C    -1.32948  -0.52166  -4.70515
C    -1.88475   0.37765  -3.81036
C    -1.21858   0.60819  -2.61233
C    -1.80292   1.42248  -1.55402
C    -3.23479   2.82200  -0.60081
C    -2.32196   2.16801   0.47458
C    -1.52767   3.20465   1.26599
C    -3.12005   1.27312   1.42194
C    -0.44146  -0.75705   3.17516
C     0.16700  -1.02043   4.39462
C     1.33719  -0.35161   4.71831
C     1.87558   0.52999   3.79598
C     1.20524   0.71117   2.59184
C     1.77386   1.50387   1.50886
C     3.18116   2.89774   0.51185
C     2.27595   2.19925  -0.54184
C     1.45962   3.20052  -1.35624
C     3.08607   1.29444  -1.46924
H     1.37778  -1.32163  -2.84196
H     0.30634  -1.88151  -5.02006
H    -1.81890  -0.73207  -5.64445
H    -2.81713   0.88116  -4.00952
H    -1.35462  -1.25900   2.88235
H    -0.27270  -1.73172   5.07569
H     1.83055  -0.52398   5.66328
H     2.79833   1.05676   3.97920
H    -3.10576   3.90706  -0.66076
H    -4.29210   2.59230  -0.44873
H     3.03783   3.98224   0.53916
H     4.24125   2.67747   0.36481
H    -0.81681   2.69835   1.91338
H    -0.98317   3.86737   0.59627
H    -2.20289   3.79933   1.87688
H    -3.85304   1.86453   1.96633
H    -3.62380   0.48835   0.86238
H    -2.44076   0.80045   2.12414
H     0.90589   3.87028  -0.70122
H     2.12141   3.79139  -1.98524
H     0.75541   2.66502  -1.98722
H     2.41302   0.79424  -2.15826
H     3.80837   1.88410  -2.02959
H     3.60341   0.53153  -0.89213
O    -1.15966  -1.17328  -0.03328
