47

Pd    0.00000   0.00000   0.00000
P    -1.19883  -0.50796  -1.81409
O    -1.54083  -1.56070   3.35830
O    -1.35164  -0.87114   1.26592
N     1.03304   0.32953   1.81512
H     0.64885   1.16518   2.27431
C     2.49366   0.45720   1.78626
H     2.75929   1.39760   1.29162
H     2.89427  -0.36028   1.16665
C     0.63634  -0.84075   2.61684
H     1.17323  -1.71653   2.21535
C     0.99954  -0.62638   4.08238
H     0.30439   0.10080   4.51894
H     0.85412  -1.55776   4.63174
C     2.41124  -0.13222   4.24157
C     3.11330   0.39616   3.16120
C     4.41282   0.85443   3.34170
H     4.94977   1.25830   2.49533
C     5.01453   0.79769   4.58384
H     6.02388   1.15854   4.71207
C     4.31588   0.27938   5.66241
H     4.77851   0.23311   6.63688
C     3.02520  -0.18088   5.48815
H     2.47677  -0.58839   6.32508
C    -0.89671  -1.11976   2.42834
C    -2.96685  -0.25785  -1.38631
H    -3.62597  -0.47970  -2.22790
H    -3.18187  -0.94834  -0.56707
C    -3.12334   1.18005  -0.89727
H    -4.09658   1.33143  -0.43609
H    -3.01351   1.88933  -1.71631
H    -2.34640   1.39124  -0.14529
C    -0.98746  -2.29665  -2.23574
H    -1.96125  -2.75909  -2.41212
H    -0.38783  -2.36973  -3.14722
C    -0.26325  -2.98403  -1.07789
H    -0.04352  -4.02337  -1.31528
H    -0.88154  -2.95493  -0.17951
H     0.68603  -2.46179  -0.87285
C    -0.92524   0.38389  -3.40014
H    -0.95896   1.45487  -3.18364
H     0.10169   0.15615  -3.69793
C    -1.90663   0.01699  -4.50562
H    -1.60088   0.48580  -5.43852
H    -2.91035   0.36219  -4.27147
H    -1.93796  -1.05920  -4.66097
O     1.11623   0.76354  -0.94527
