41

Re    0.00000   0.00000   0.00000
O     1.54260   0.68927   2.64371
N    -1.92949   1.31947  -2.01617
N    -1.38803   0.11478   5.34825
N     0.88178   0.27808   4.76701
O     0.22148  -0.01731   6.92508
O     2.00949  -1.86334   1.42376
O     0.88071  -1.05861  -2.76280
O     1.73508   2.55500  -0.09847
N    -3.03919   0.12761   3.71815
N    -1.13721   0.57960   1.77172
C    -0.77957   0.41889   3.04784
C    -2.74522   1.03224   0.10342
N    -1.75902   0.91529  -0.73564
C     0.63483   0.46835   3.42215
C     2.28077   0.29435   5.16436
H     2.33491   0.07460   6.22716
H     2.70874   1.27446   4.95488
H     2.82443  -0.45200   4.58656
C    -3.40466   0.31701   2.46603
C     1.10580   1.60040  -0.07686
C    -1.75260   0.24092   4.04291
C    -4.04832   1.65296  -0.30358
H    -3.84524   2.52190  -0.93222
H    -4.60558   1.99109   0.56175
H    -4.66902   0.95591  -0.86986
C     0.61503  -0.65283  -1.72218
C    -2.45125   0.65502   1.47311
C    -4.84168   0.02280   2.18873
H    -5.19575  -0.66672   2.95138
H    -4.96636  -0.42679   1.20855
H    -5.44943   0.92451   2.25327
C     1.35653  -1.09683   0.89167
C    -0.06825   0.11367   5.76022
C    -2.39108  -0.06450   6.38139
H    -3.35479  -0.18790   5.89685
H    -2.40187   0.80495   7.03908
H    -2.14176  -0.94311   6.97512
H    -1.19954   0.99250  -2.63436
H    -2.86485   1.24587  -2.39977
O    -0.97813  -1.31359   0.20060
