51

Re    0.00000   0.00000   0.00000
N    -2.01780  -2.54335  -8.71044
O    -3.70183  -1.51411  -9.83529
O    -0.33575  -3.59553  -7.62115
N     0.64918   0.37360  -2.91912
N    -2.12706   0.52120  -6.05356
O    -2.36366  -1.00140  -1.71597
N     1.17479   0.49573  -1.73711
N    -2.93150  -0.51226  -7.95663
O     1.34275  -2.76670   0.31734
N    -0.35455  -1.55149  -5.66409
N     1.74237   1.02118   0.79297
C     1.98089   1.32266   2.06340
C    -1.16004  -1.55548  -6.70945
C    -2.07808  -0.50635  -6.90006
O    -1.58079  -0.03683   2.65379
C     3.66225   2.32315   0.17716
C    -1.09603  -2.65963  -7.67486
C    -1.99720  -3.61835  -9.69092
H    -2.76710  -3.42222 -10.43185
H    -2.18161  -4.56767  -9.18906
H    -1.01547  -3.65985 -10.16205
C     2.56654   1.52001  -0.15080
C     3.03780   2.12040   2.46476
C    -0.40775  -0.54027  -4.80513
C    -1.30927   0.53816  -5.01402
C     1.11818  -1.97379  -3.37240
H     2.13084  -1.84805  -2.99384
H     1.11807  -2.58421  -4.26990
H     0.53107  -2.47665  -2.60013
C     3.89872   2.63010   1.50072
C    -1.41277   1.72498  -4.13044
H    -2.21750   2.36370  -4.48401
H    -0.47729   2.28187  -4.13412
H    -1.60528   1.43218  -3.09931
C     2.23387   1.20390  -1.51259
C    -2.93658  -1.52701  -8.89990
C     0.48110  -0.65201  -3.65430
C     0.82373  -1.74645   0.21082
C    -3.87184   0.58225  -8.10082
H    -4.47427   0.39088  -8.98559
H    -3.32864   1.52036  -8.20658
H    -4.50283   0.63935  -7.21506
C    -1.50971  -0.68354  -1.02110
C    -0.99964  -0.10147   1.67214
H     1.29777   0.90753   2.79300
H     4.29677   2.70025  -0.60976
H     4.73201   3.25640   1.78013
H     3.18023   2.33800   3.51062
H     2.84186   1.58842  -2.32507
O    -0.52512   1.55086  -0.20389
