45

Cu    0.00000   0.00000   0.00000
N    -1.59817   0.17004   1.30834
C    -1.39391  -0.46335   2.46804
C    -2.39719  -1.16222   3.11603
H    -2.19786  -1.65593   4.05478
C    -3.66445  -1.20270   2.54881
H    -4.46900  -1.73347   3.03351
C    -3.87599  -0.53374   1.35022
H    -4.85070  -0.52993   0.88648
C    -2.82383   0.15517   0.77364
C     0.02311  -0.44658   2.97607
H     0.50115   0.49649   2.68566
H     0.06309  -0.56682   4.05839
N     0.72453  -1.54301   2.35155
N     0.61859  -1.71893   1.03056
C     1.32488  -2.79855   0.72448
C     1.88922  -3.33062   1.89086
H     2.51151  -4.19837   1.96816
C     1.48503  -2.50068   2.91795
C     1.44754  -3.30560  -0.66550
H     0.52772  -3.11459  -1.21275
H     1.65520  -4.37292  -0.65839
H     2.26510  -2.79851  -1.17778
C     1.78453  -2.55330   4.37106
H     2.28807  -1.64227   4.69360
H     2.43542  -3.39889   4.57419
H     0.87273  -2.67047   4.95785
C    -2.98168   0.94161  -0.50201
H    -4.03056   1.17134  -0.68882
H    -2.41000   1.87295  -0.40183
N    -2.45592   0.21516  -1.63270
N    -1.16473  -0.12826  -1.65839
C    -0.90874  -0.63165  -2.85592
C    -2.08693  -0.62517  -3.61768
H    -2.20511  -0.96921  -4.62456
C    -3.05744  -0.07144  -2.80857
C     0.45422  -1.05031  -3.26621
H     1.15659  -0.83274  -2.46607
H     0.75416  -0.50048  -4.15693
H     0.48524  -2.11361  -3.49991
C    -4.49110   0.20179  -3.08374
H    -5.13203  -0.29861  -2.35769
H    -4.74215  -0.16397  -4.07531
H    -4.69844   1.27160  -3.04904
O     1.22820   1.10122   0.03666
