51

C    -1.44183   1.10403   0.88792
C    -2.77157   0.46650   1.18668
H    -2.69522  -0.56621   1.50941
H    -3.34868   0.47152   0.26005
H    -3.29969   1.06661   1.92712
C     0.35701  -1.16309   1.60613
C    -0.28039  -0.89821   2.94917
H    -0.51529   0.15030   3.10818
H     0.39356  -1.25529   3.72741
H    -1.19773  -1.48309   3.01011
C     1.57057   1.19640   0.81861
H     1.17614   1.84078   1.60429
H     2.32833   0.52058   1.22493
C     2.09204   1.96873  -0.30845
C     1.52839   3.20609  -0.65559
H     0.74258   3.61286  -0.03631
C     1.93945   3.87576  -1.78303
H     1.49157   4.81619  -2.06772
C     2.94647   3.34581  -2.59495
C     3.56809   2.15403  -2.21910
H     4.36993   1.76017  -2.82496
C     3.14907   1.48374  -1.09286
H     3.63584   0.56110  -0.80739
C     3.29850   4.04834  -3.83332
C     2.11987  -2.07492  -1.39079
H     2.23099  -2.40603  -0.36761
C     2.63291  -2.82653  -2.43559
H     3.16072  -3.74432  -2.23350
C     2.42708  -2.38032  -3.72955
H     2.78054  -2.94904  -4.57651
C     1.74839  -1.19056  -3.92024
H     1.54895  -0.83626  -4.91820
C     1.28923  -0.47750  -2.81351
C     0.56150   0.79102  -2.98246
C     0.71282   1.56504  -4.13301
H     1.43128   1.28564  -4.88617
C    -0.04211   2.71226  -4.28607
H     0.07059   3.33049  -5.16308
C    -0.93804   3.05280  -3.28642
H    -1.56415   3.92591  -3.36826
C    -0.99569   2.25799  -2.15507
H    -1.65927   2.51814  -1.34264
N     1.46082  -0.94068  -1.56963
N    -0.25984   1.16725  -1.99660
O    -1.25611   2.28272   1.00900
O     1.11939  -2.07031   1.43631
O     4.36220   3.52229  -4.47440
H     4.54232   4.04169  -5.27298
O     2.69869   4.99598  -4.28687
Pt    0.00000   0.00000   0.00000
O    -1.05136  -1.09735  -0.64262
